21
conf-242
 N   6.53239911   11.84930825   7.39840314
 H   6.54099541   12.83569575   7.64572516
 H   7.48789077   11.51876053   7.24820874
 H   6.15215403   11.31230496   8.17634237
 C   5.78731895   11.58482879   6.15591540
 H   4.73559753   11.39119151   6.35362083
 H   5.83699608   12.43800172   5.47578006
 C   6.40990847   10.37495311   5.46394689
 O   7.51319696   9.94667027   5.78232407
 N   5.65987666   9.82315309   4.47892044
 H   4.93037806   10.37791959   4.05657818
 C   6.24646286   8.84710530   3.59109726
 H   6.19728010   7.82781315   3.98577413
 H   7.31674121   9.04787233   3.46951804
 C   5.55015482   8.96096342   2.24140754
 O   4.98301378   9.98796576   1.91370797
 N   5.68538825   7.88821129   1.42104591
 H   5.87607966   6.99118812   1.83797746
 C   5.19889348   7.93886301   0.07131486
 H   4.73861706   8.92355126  -0.05621749
 H   6.02303544   7.86533788  -0.64050237
 C   4.18562400   6.85969552  -0.25886309
 O   3.58228726   6.21257313   0.60999734
 N   3.87942968   6.71108466  -1.55874510
 H   4.42613668   7.20355731  -2.24523036
 C   3.11440244   5.55551387  -2.00964425
 H   3.18556207   5.47572368  -3.09235867
 H   3.51060394   4.62585770  -1.58336515
 C   1.63338691   5.55651171  -1.64611236
 O   0.95974187   4.55393167  -1.88317546
 N   1.13958698   6.64233766  -1.03140054
 H   1.73530622   7.43258536  -0.85313393
 C  -0.21685579   6.65106368  -0.54286805
 H  -0.43876859   7.64300681  -0.14558756
 H  -0.92261217   6.44801416  -1.35087711
 C  -0.54854715   5.61430392   0.53538655
 O  -1.70263890   5.27024344   0.71525969
 N   0.47879859   5.13670188   1.28176792
 H   1.42669552   5.41464211   1.08293285
 C   0.23638652   4.05181792   2.18784946
 H   0.86046830   4.13598480   3.07119476
 H  -0.80821054   4.11209092   2.49690430
 C   0.46218161   2.64614331   1.64206323
 O   0.43359524   1.68772334   2.41222255
 N   0.67326697   2.50011409   0.32511418
 H   0.72631769   3.30019352  -0.29145829
 C   0.90050665   1.18912448  -0.24844703
 H   0.21958658   0.49466368   0.24572488
 H   0.68260990   1.23809965  -1.31534437
 C   2.34702700   0.72586792  -0.09007211
 O   3.12086739   0.64758473  -1.04107567
 N   2.72212816   0.41532336   1.17118119
 H   2.10593201   0.66050611   1.93913002
 C   4.10960050   0.12831222   1.45608352
 H   4.48141790  -0.50300339   0.64941487
 H   4.18178632  -0.40078291   2.40479619
 C   4.93273568   1.41021773   1.56772553
 O   5.16058566   1.95288167   2.63537156
 N   5.36918263   1.92652224   0.39375047
 H   4.98262368   1.56851116  -0.47274372
 C   6.06578971   3.18844261   0.39322121
 H   6.25528486   3.45776926  -0.64923322
 H   5.44140908   3.95592974   0.84351777
 C   7.40732080   3.10562218   1.11935223
 O   8.24907202   2.28646505   0.79732814
 N   7.61716743   4.03635173   2.08755160
 H   6.83760870   4.60549989   2.41048399
 C   8.86556026   4.10647809   2.78548409
 H   9.63403590   3.71655763   2.11487315
 H   9.09653271   5.15783342   2.98721911
 C   8.93122972   3.31846193   4.08460225
 O   8.30527588   2.28491237   4.28179469
 N   9.87676282   3.79983327   4.94673661
 H   10.08672332   4.77780283   4.85957555
 C   10.04828794   3.21267720   6.25958455
 H   11.03405248   3.42715608   6.66443886
 H   9.92150418   2.13882041   6.13360311
 C   8.96362722   3.71942153   7.16255676
 O   7.86032111   3.83227959   6.72804444
 N   9.25132927   4.10482918   8.42096370
 H   10.10767214   3.80091765   8.84472158
 C   8.05360945   4.34815141   9.20660790
 H   7.55592542   3.41364858   9.48993396
 H   8.31990646   4.89237113   10.11713865
 C   7.01478284   5.13546703   8.41884740
 O   5.81461544   4.88205733   8.50338414
 N   7.46704699   6.20722855   7.70248487
 H   8.44869726   6.26292255   7.49702520
 C   6.58498296   6.74385474   6.69963158
 H   6.98722508   7.67448014   6.30589134
 H   5.62102685   6.93897513   7.17899127
 C   6.42780248   5.75430635   5.52070274
 O   7.22350304   5.79716454   4.56570780
 N   5.32284721   4.96648783   5.57772004
 H   4.87458294   4.85189980   6.47893517
 C   5.09628187   3.98451196   4.54670265
 H   4.54719451   3.14855261   4.97541317
 H   6.07166996   3.66605286   4.17913203
 C   4.25861565   4.55560266   3.42096286
 O   3.09238012   4.32360910   3.22559315
 O   4.96636913   5.39105388   2.66837162
 H   4.34255572   5.78186535   1.98886768
