21
conf-702
 N  -5.65126530   7.92971576  -0.65768939
 H  -5.82624430   7.83685699  -1.65679333
 H  -5.27318939   8.86072364  -0.48220364
 H  -6.54270954   7.87541530  -0.16112579
 C  -4.74163006   6.88291143  -0.15380074
 H  -5.06083076   5.90527878  -0.52879558
 H  -3.71372043   7.05437120  -0.48580884
 C  -4.80161003   6.82711849   1.36320888
 O  -5.81211472   7.12807384   1.97020635
 N  -3.67502504   6.38863786   1.97639083
 H  -2.92800884   5.99887104   1.42020253
 C  -3.65769323   6.17934209   3.40094633
 H  -4.53514498   6.68089308   3.81289621
 H  -2.76305165   6.61050755   3.85381578
 C  -3.68025519   4.71452090   3.82000290
 O  -3.19054361   4.36313191   4.88992295
 N  -4.28832413   3.85305244   2.97563635
 H  -4.48343012   4.17089055   2.04141161
 C  -4.17627125   2.42242231   3.21810924
 H  -4.26170972   2.28322343   4.29588377
 H  -4.98080753   1.90395979   2.70031230
 C  -2.84580470   1.89939749   2.68267094
 O  -2.76515732   1.30002518   1.61573403
 N  -1.75822052   2.22418163   3.42011673
 H  -1.87930835   2.87570818   4.18729094
 C  -0.45148607   2.14010146   2.80894712
 H   0.30822114   2.03253217   3.58131195
 H  -0.46845758   1.25311899   2.17249324
 C  -0.10155012   3.39396716   2.00477742
 O   0.79700026   4.15238734   2.33429296
 N  -0.86952296   3.62742657   0.91574088
 H  -1.58169086   2.97275324   0.62681051
 C  -0.52051795   4.73199273   0.06634950
 H  -0.39194419   5.63355227   0.67278060
 H   0.43419785   4.55581207  -0.43268105
 C  -1.60431620   5.02130909  -0.99586051
 O  -2.81410129   4.80248495  -0.79126027
 N  -1.09035424   5.63798004  -2.11582854
 H  -0.09906680   5.53837621  -2.25389537
 C  -1.90208286   5.77818176  -3.31834969
 H  -2.91955803   5.99060498  -2.98455589
 H  -1.52156589   6.60765725  -3.91167233
 C  -1.83782543   4.51663879  -4.17093482
 O  -1.04994382   4.40342194  -5.10139371
 N  -2.67184886   3.51918532  -3.78718952
 H  -3.09753648   3.59995087  -2.87226237
 C  -2.46802917   2.18642697  -4.31292748
 H  -3.40707521   1.63652604  -4.28107828
 H  -2.14169696   2.31252667  -5.34673500
 C  -1.45024968   1.40518722  -3.47944329
 O  -1.77735661   0.50803924  -2.71996912
 N  -0.16844389   1.81338980  -3.59828306
 H   0.11845445   2.54105774  -4.23664187
 C   0.85908713   1.12044791  -2.87259112
 H   0.94991307   0.08255592  -3.20918289
 H   0.60896680   1.07058692  -1.81008928
 C   2.17442506   1.85140088  -3.07624467
 O   2.31512785   2.69736729  -3.95155489
 N   3.18121716   1.48133215  -2.26178671
 H   3.02070116   0.75985539  -1.57901815
 C   4.45629905   2.17766061  -2.27459307
 H   4.24041722   3.23865069  -2.42778450
 H   4.95868869   2.05904453  -1.31877046
 C   5.42642068   1.70575224  -3.34875000
 O   6.57741829   1.38785263  -3.06778265
 N   4.99181007   1.72574311  -4.61783490
 H   4.07241738   2.08907735  -4.83975337
 C   5.85669726   1.27074242  -5.67752982
 H   6.37851357   0.36769255  -5.36573351
 H   5.26473988   1.02036661  -6.55792300
 C   6.92009803   2.27803031  -6.13290878
 O   7.68919942   1.95555161  -7.04065677
 N   6.99586045   3.46608264  -5.51566061
 H   6.38192257   3.64674548  -4.74173280
 C   8.19030272   4.27980713  -5.64272279
 H   7.96190287   5.29873188  -5.33617043
 H   8.47880917   4.26383919  -6.69292954
 C   9.31706823   3.75967358  -4.74891896
 O   9.61483808   4.29195271  -3.69332662
 N   9.91645867   2.63153560  -5.20540317
 H   9.58593195   2.21596735  -6.06409607
 C   10.92804481   1.96568192  -4.43779852
 H   11.81523144   1.75968888  -5.03789593
 H   11.19768931   2.64701878  -3.62687141
 C   10.51198690   0.62110920  -3.84591818
 O   11.29697235  -0.32399525  -3.82656378
 N   9.27733951   0.54575965  -3.31667707
 H   8.60473383   1.28791234  -3.44658090
 C   8.79143948  -0.72164987  -2.80504198
 H   7.99735783  -0.52100782  -2.09080790
 H   9.63223114  -1.21173084  -2.31278830
 C   8.23237782  -1.58397161  -3.92566719
 O   7.03153871  -1.65625632  -4.16852845
 N   9.15646264  -2.23346179  -4.68109231
 H   10.12915651  -1.96077031  -4.57833154
 C   8.72852741  -2.76759282  -5.95189598
 H   7.91667511  -3.47891203  -5.80103056
 H   9.56115604  -3.30083985  -6.41517784
 C   8.21479218  -1.72173718  -6.92312428
 O   7.44268472  -1.96197281  -7.81584410
 O   8.73706020  -0.50436425  -6.69409192
 H   8.24367616   0.15509666  -7.22127563
