21
conf-145
 N  -7.91434546   5.24587667  -7.88872002
 H  -8.34887238   5.37123500  -6.97730715
 H  -8.54236351   5.60408968  -8.60695730
 H  -7.05809142   5.80084936  -7.94072110
 C  -7.55201352   3.84172149  -8.15401372
 H  -7.24900455   3.33822457  -7.23326850
 H  -8.39006825   3.28888584  -8.56964549
 C  -6.38179208   3.81296367  -9.12772357
 O  -5.66327249   4.79460219  -9.28867900
 N  -6.17475618   2.64262002  -9.76683267
 H  -6.73722119   1.84408182  -9.52978448
 C  -5.11558066   2.49473188  -10.75165963
 H  -5.06600805   3.43170810  -11.30704949
 H  -5.35951073   1.68061505  -11.43023202
 C  -3.76762520   2.18341598  -10.10830981
 O  -3.26951654   1.07195528  -10.13307607
 N  -3.19598949   3.23278992  -9.46384610
 H  -3.67471645   4.12151950  -9.41598497
 C  -1.96792432   3.04765200  -8.74844337
 H  -1.47987870   2.15951500  -9.15068416
 H  -1.30154695   3.89734738  -8.87840092
 C  -2.09637535   2.84962222  -7.23994192
 O  -1.10869713   2.98572203  -6.51954490
 N  -3.31164583   2.51514513  -6.76970734
 H  -4.07702321   2.43793843  -7.41759441
 C  -3.47712884   2.11169462  -5.39642876
 H  -4.27483249   1.37567362  -5.32634555
 H  -2.53858105   1.65519572  -5.06741598
 C  -3.77787858   3.27031240  -4.42065209
 O  -3.17949373   4.36260455  -4.44040747
 N  -4.72763826   2.93530556  -3.48892090
 H  -4.98903444   1.96641480  -3.43804836
 C  -4.84930274   3.72074407  -2.27393246
 H  -4.56487734   4.73865247  -2.55231995
 H  -5.87845428   3.71033895  -1.91961233
 C  -3.97842875   3.17102542  -1.13897731
 O  -4.46937571   2.71676527  -0.12024889
 N  -2.63906592   3.22699979  -1.37076870
 H  -2.34080740   3.50247495  -2.29755613
 C  -1.69680684   2.54699974  -0.52930888
 H  -0.95065310   3.24921250  -0.14319060
 H  -2.24439510   2.14102847   0.32100617
 C  -0.96598390   1.42565699  -1.27198660
 O  -0.92375632   1.35541466  -2.48588932
 N  -0.34906481   0.50097911  -0.47281026
 H  -0.11605253   0.78623649   0.46596500
 C   0.55925084  -0.44569473  -1.08858639
 H   0.52906633  -1.38628193  -0.53569673
 H   0.22236065  -0.62442079  -2.10648951
 C   1.98461690   0.09044411  -1.03615307
 O   2.47525260   0.47649897   0.00786045
 N   2.65376734   0.13926228  -2.22014995
 H   2.22750189  -0.22785075  -3.05255871
 C   3.98642313   0.70212792  -2.28141427
 H   4.37611933   0.56209329  -3.29014752
 H   4.65507652   0.19501663  -1.58408379
 C   4.07938110   2.19131066  -1.91508161
 O   5.09515355   2.66018818  -1.43038841
 N   2.99355017   2.94698203  -2.21709211
 H   2.14030651   2.48058751  -2.45358964
 C   2.88560849   4.27534661  -1.63798810
 H   3.06574504   4.26016584  -0.56144508
 H   3.63999989   4.92729887  -2.08343324
 C   1.48846365   4.83306002  -1.86740217
 O   0.88763093   5.46478856  -1.01190308
 N   0.97600392   4.55654934  -3.09633700
 H   1.58781004   4.14548467  -3.77985319
 C  -0.35767571   4.96843012  -3.43578973
 H  -0.91651754   4.13209635  -3.85925478
 H  -0.80412427   5.27303433  -2.48331100
 C  -0.38804791   6.17417195  -4.36468740
 O  -0.16951424   7.30681054  -3.96035125
 N  -0.67067090   5.89835450  -5.65696469
 H  -0.73279331   4.93822645  -5.98328677
 C  -0.87996895   6.96448722  -6.58312527
 H  -0.34116841   7.84332873  -6.21864935
 H  -1.93426291   7.25175159  -6.63422777
 C  -0.40717611   6.61215484  -7.99116898
 O   0.12832301   5.55031419  -8.28328772
 N  -0.61311315   7.56919343  -8.91506107
 H  -1.04621070   8.45594238  -8.72102504
 C  -0.19157393   7.35167599  -10.27307139
 H   0.88630095   7.17884179  -10.33261547
 H  -0.65947637   6.45481091  -10.68853890
 C  -0.58415980   8.58926825  -11.07786954
 O  -1.12258600   9.55348698  -10.56449744
 N  -0.29112945   8.54000990  -12.39124069
 H   0.14743250   7.75291427  -12.83716596
 C  -0.61962570   9.65158537  -13.24147437
 H  -0.11899259   10.56510943  -12.90892022
 H  -1.69014480   9.87172810  -13.20616611
 C  -0.18850852   9.28496480  -14.66117060
 O   0.33790899   8.21879204  -14.92410511
 N  -0.43159290   10.22374220  -15.59823708
 H  -0.86844350   11.10169270  -15.37465138
 C  -0.06530964   9.97611687  -16.97153394
 H  -0.55957784   9.08368953  -17.36001142
 H   1.00708102   9.79838869  -17.07162334
 C  -0.45534899   11.16810742  -17.80278710
 O  -0.98390426   12.15965123  -17.36745709
 O  -0.14366008   11.00011124  -19.10059848
 H  -0.42572032   11.80481209  -19.55598917
