21
conf-879
 N  -10.40849784   1.77608699   7.24103907
 H  -11.19405476   1.26748349   6.83191232
 H  -10.00705918   1.18656562   7.97341491
 H  -10.75218453   2.63260817   7.67069944
 C  -9.36594438   2.05328993   6.23249280
 H  -9.84598022   2.41826809   5.31591408
 C  -8.62631788   0.76592793   5.88987258
 C  -8.37276107   3.14742007   6.70212412
 H  -8.94775058   4.07899739   6.67877880
 O  -8.32198783  -0.05780869   6.74383115
 C  -7.87219687   2.92508313   8.12560873
 H  -7.44285828   1.92686416   8.21699355
 H  -7.09158826   3.65333255   8.36481641
 H  -8.67020456   3.02978867   8.86063987
 C  -7.16718211   3.29779828   5.76862053
 H  -6.42480547   2.51851839   5.98711547
 H  -7.43379423   3.26152400   4.70796075
 H  -6.66496251   4.25254909   5.95335870
 N  -8.30841588   0.61198140   4.57282604
 H  -8.48571575   1.37842323   3.93911823
 C  -7.19299037  -0.24916661   4.18701676
 H  -6.72281957  -0.57732444   5.11458293
 C  -6.22097131   0.61253503   3.39760665
 C  -7.64782291  -1.50935445   3.43578899
 H  -8.15575223  -2.10874286   4.20234140
 O  -6.53899627   1.14080348   2.33786328
 C  -6.45348847  -2.30200426   2.88912186
 H  -5.92922942  -1.67257135   2.16317198
 H  -6.85630014  -3.15103585   2.33021071
 C  -8.62609758  -1.23771589   2.29366260
 H  -8.14085163  -0.64989373   1.51501786
 H  -9.50745312  -0.70027307   2.64332615
 H  -8.95344499  -2.18481488   1.86113527
 C  -5.48298417  -2.82712016   3.93893079
 H  -4.69867279  -3.42388694   3.46813865
 H  -4.98472145  -2.01864625   4.47852648
 H  -5.99230762  -3.45907594   4.67125647
 N  -5.01399823   0.81398123   3.97581505
 H  -4.78933329   0.34130134   4.83285066
 C  -3.93149493   1.47130301   3.26282395
 H  -4.33485114   2.39368780   2.84443848
 C  -3.44147102   0.55922870   2.13867790
 C  -2.79395667   1.77113725   4.24416936
 H  -1.98955738   2.27469426   3.70393607
 H  -2.39818989   0.82453471   4.60955050
 O  -3.19279697  -0.62780312   2.32915016
 C  -3.27662704   2.61373590   5.39058689
 C  -3.56790449   3.96189096   5.19156985
 H  -3.40607724   4.39432632   4.21059812
 C  -3.52294516   2.05260020   6.63635748
 H  -3.31466696   1.00189559   6.80402739
 C  -4.06514284   4.74310530   6.23086882
 H  -4.29750952   5.78782097   6.05243324
 C  -4.04605325   2.82375360   7.67147521
 H  -4.26895362   2.36153911   8.62669134
 C  -4.31747263   4.17072943   7.46820359
 H  -4.75670447   4.76403404   8.26444681
 N  -3.32133591   1.14872506   0.91941945
 H  -3.28757641   2.15236813   0.87488170
 C  -2.66441039   0.43514382  -0.16289060
 H  -2.84980000  -0.62215909   0.02325178
 C  -1.17531935   0.74812951  -0.10859876
 C  -3.23469633   0.86849897  -1.50732590
 H  -3.12174960   1.95403540  -1.57585133
 H  -4.30426152   0.65048652  -1.50653357
 O  -0.76301637   1.87694953  -0.33354233
 C  -2.58249274   0.22637224  -2.73520258
 H  -1.51071899   0.45569964  -2.69727774
 C  -2.75578784  -1.28918207  -2.76011987
 H  -3.81637374  -1.54549968  -2.83740088
 H  -2.35043784  -1.77407728  -1.86969089
 H  -2.23770103  -1.71393634  -3.62447483
 C  -3.16503752   0.84852224  -4.00277647
 H  -4.23987365   0.66092986  -4.05509246
 H  -2.70118713   0.42262388  -4.89492061
 H  -3.00249137   1.92795344  -4.02069479
 N  -0.36819822  -0.28981330   0.23743516
 H  -0.76769624  -1.21077919   0.16427689
 C   1.06218083  -0.18642836   0.00598562
 H   1.31573928   0.85935255   0.17160774
 C   1.39522091  -0.54798960  -1.44818504
 C   1.85466360  -1.05100069   0.98418753
 H   1.74328088  -0.63488634   1.98489322
 H   2.91350148  -0.97334199   0.72928439
 O   0.73859131  -1.34341313  -2.10850763
 C   1.43388800  -2.51684912   0.97325828
 H   0.45077056  -2.65968991   1.43114800
 H   1.35842272  -2.89494944  -0.04807026
 C   2.40993153  -3.39060508   1.71856821
 O   3.49445846  -3.05916892   2.12583060
 O   1.93043515  -4.64666197   1.87562987
 N   2.49566137   0.08684861  -1.94652884
 H   3.14229358   0.50363541  -1.29599854
 C   3.05669730  -0.31628672  -3.22590614
 H   2.31842938  -0.93165406  -3.73045807
 C   4.32357621  -1.11727541  -2.94707403
 C   3.40889755   0.90242484  -4.08601202
 H   2.49739067   1.44825726  -4.32271839
 H   4.08970573   1.55429072  -3.53271428
 O   5.26678134  -0.60276853  -2.32795729
 C   4.03331467   0.44758844  -5.39962747
 N   5.37822411   0.24194960  -5.34663473
 H   5.75359918  -0.33553675  -6.08552726
 H   5.82259177   0.17212861  -4.44416193
 O   3.36656423   0.28202232  -6.40387521
 N   4.33159423  -2.38074027  -3.44550499
 H   3.70179575  -2.59923385  -4.19814958
 C   5.53762293  -3.18792015  -3.33298809
 H   5.99796365  -2.91573924  -2.38369648
 C   6.49533343  -2.87606182  -4.48746179
 C   5.16364144  -4.67495561  -3.34648670
 H   4.35708218  -4.80869853  -2.62553399
 H   4.77909913  -4.91549804  -4.33976747
 O   6.11176188  -2.88850762  -5.66485226
 C   6.32174048  -5.57915052  -3.01703053
 C   6.82924738  -6.46277856  -3.97083569
 H   6.37736972  -6.51358828  -4.95774842
 C   6.93550023  -5.53465049  -1.76338827
 H   6.54401255  -4.85594489  -1.01235025
 C   7.91965941  -7.28060280  -3.68842679
 H   8.31932840  -7.95705008  -4.43298647
 C   8.02998485  -6.34322997  -1.46633141
 H   8.48966694  -6.29092991  -0.48558646
 O   9.60602518  -8.02045734  -2.21945640
 H   9.92137954  -7.89028195  -1.32155271
 C   8.52744552  -7.21160055  -2.43692581
 N   7.77765040  -2.59328922  -4.09608903
 H   8.07401544  -2.91799520  -3.18863410
 C   8.82585243  -2.50415299  -5.08482526
 H   8.37474367  -2.21836384  -6.03366807
 C   9.46684775  -3.93513768  -5.22096168
 C   9.94451263  -1.57935447  -4.66725387
 H   9.56590194  -0.56793297  -4.53472774
 H   10.32764890  -1.92993682  -3.70131653
 O   9.26156789  -4.51879129  -6.29169302
 C   11.04946751  -1.62829343  -5.71448065
 H   11.23872523  -2.67704027  -5.95599733
 H   10.71008439  -1.14901357  -6.63629314
 C   12.32814401  -0.96301858  -5.24892459
 H   12.66399612  -1.42963737  -4.31996569
 H   13.12121952  -1.09934233  -5.99314038
 N   12.07987379   0.47440090  -5.00790851
 H   11.44982195   0.90268859  -5.66953112
 N   14.14118444   0.79938358  -3.95995520
 H   14.93178167   1.41815526  -3.86591718
 H   14.37508776  -0.15682223  -4.17870013
 N   12.81234704   2.63733055  -4.56328142
 H   13.33261206   3.17687776  -3.88559022
 H   11.84524063   2.92785590  -4.64166827
 C   13.01867416   1.29456451  -4.52090251
 O   10.08091647  -4.31573295  -4.21497105
 H   2.61961334  -5.13680333   2.34341458
