21
conf-981
 N  -9.98302070   5.14090992   4.79330717
 H  -10.17794725   5.44663944   3.84009344
 H  -10.61224218   4.36415490   5.00074446
 H  -10.18539992   5.89686879   5.44381680
 C  -8.59088952   4.68020665   4.92250217
 H  -7.92715269   5.40830205   4.43544602
 C  -8.45428072   3.34747600   4.18296954
 C  -8.14518966   4.55733430   6.39224842
 H  -7.14387035   4.11487009   6.36476688
 O  -9.42932986   2.68241376   3.85731848
 C  -8.02917707   5.92347067   7.06228605
 H  -9.00644255   6.39785153   7.17347456
 H  -7.60122528   5.81756329   8.06179320
 H  -7.38894410   6.60087378   6.49150008
 C  -9.05799864   3.63608159   7.19400049
 H  -10.03523257   4.10372991   7.34349344
 H  -9.21397065   2.68006909   6.68926702
 H  -8.63026323   3.44135567   8.18010081
 N  -7.18512604   2.93589239   3.96390555
 H  -6.39625430   3.52662834   4.17886136
 C  -6.88684852   1.71622003   3.23741434
 H  -7.53573802   0.93211317   3.62901124
 C  -5.42206321   1.39692991   3.52823760
 C  -7.17789750   1.83463711   1.71006138
 H  -8.26066311   1.95291627   1.64302728
 O  -4.58013917   2.27815865   3.61789596
 C  -6.80096975   0.56687449   0.93634272
 H  -5.71652541   0.40927858   0.98635550
 H  -7.01890643   0.75455256  -0.12030064
 C  -6.51328069   3.05918596   1.07944249
 H  -5.44186109   3.05690887   1.28267998
 H  -6.93529483   3.98375483   1.47855649
 H  -6.66105468   3.06389539  -0.00564991
 C  -7.54921516  -0.68872317   1.35124291
 H  -7.22275579  -1.54495382   0.75658442
 H  -7.38896714  -0.95349149   2.39981407
 H  -8.62489658  -0.56032190   1.20382855
 N  -5.10541251   0.07393203   3.66814040
 H  -5.78826678  -0.59949208   3.36388600
 C  -3.71272998  -0.33914708   3.49878854
 H  -3.10079961   0.44811236   3.93260469
 C  -3.38703554  -0.45333623   1.99569954
 C  -3.42671997  -1.68030373   4.19398254
 H  -4.02799159  -2.45062489   3.70909900
 H  -3.75898836  -1.59647867   5.22760353
 O  -3.99584715  -1.28647346   1.28468587
 C  -1.96034258  -2.04183341   4.14904039
 C  -1.40199626  -2.64700393   3.01720947
 H  -2.03617686  -2.86105184   2.16064172
 C  -1.12410595  -1.74517254   5.22792519
 H  -1.54131104  -1.28265535   6.11407532
 C  -0.04493770  -2.96640926   2.98607995
 H   0.36850657  -3.44942452   2.10628913
 C   0.23534469  -2.04741710   5.18478110
 H   0.86218935  -1.80642062   6.03614892
 C   0.78059793  -2.66306620   4.06349868
 H   1.83404864  -2.91348423   4.03135302
 N  -2.44190938   0.41885195   1.55045271
 H  -1.91233388   0.91726349   2.24687637
 C  -1.75381671   0.26577876   0.28224184
 H  -2.16766859  -0.61248101  -0.21373301
 C  -0.28384796   0.03085033   0.60316934
 C  -1.90638101   1.50711609  -0.59401248
 H  -1.46592150   1.29344583  -1.57244882
 H  -1.32891023   2.32548257  -0.16196158
 O   0.23903778   0.55119022   1.58286525
 C  -3.34946690   1.97081386  -0.79167386
 H  -3.74363524   2.24509703   0.19626593
 C  -3.38812825   3.20975079  -1.67436187
 H  -3.00733437   2.97428876  -2.67055530
 H  -2.77685139   4.01533111  -1.25944751
 H  -4.41203618   3.58020216  -1.78067618
 C  -4.21869182   0.86488692  -1.36461726
 H  -3.87046202   0.58849257  -2.36297030
 H  -5.25996424   1.18942026  -1.44541358
 H  -4.19745899  -0.02623956  -0.74354781
 N   0.40956151  -0.74282767  -0.26185427
 H  -0.01499053  -1.00293405  -1.13591807
 C   1.86075586  -0.87979040  -0.14660083
 H   2.06712266  -0.92446467   0.92582847
 C   2.51601816   0.36820714  -0.75349524
 C   2.31758667  -2.16025911  -0.82345691
 H   2.10178708  -2.11014881  -1.89047067
 H   1.71650353  -2.96960632  -0.40531220
 O   2.93501159   0.38781605  -1.91113620
 C   3.79940991  -2.45868798  -0.60557311
 H   4.40738274  -1.65553260  -1.04099726
 H   4.05323219  -2.50613859   0.45351211
 C   4.22493810  -3.74298401  -1.26749762
 O   3.63459696  -4.31084810  -2.15007521
 O   5.40030510  -4.19485672  -0.77201099
 N   2.56267845   1.44546413   0.06672378
 H   2.02274501   1.40422490   0.92376669
 C   2.95799535   2.75776209  -0.43510604
 H   2.46854264   2.91557145  -1.40090294
 C   4.48378899   2.79598059  -0.61417775
 C   2.54527063   3.85509587   0.53859911
 H   2.88509767   3.62401705   1.54656823
 H   3.02892435   4.78717133   0.24845843
 O   5.23451398   3.18734335   0.26864981
 C   1.05542394   4.11870184   0.50764175
 N   0.51774557   4.55265128   1.67222132
 H  -0.45820450   4.78321487   1.68494846
 H   1.07733683   4.68999752   2.49190919
 O   0.39359859   3.99382223  -0.51693342
 N   4.94802145   2.37250684  -1.81545582
 H   4.34474912   1.84349469  -2.43297138
 C   6.36836821   2.18897758  -2.00989702
 H   6.88580552   3.00378852  -1.50104962
 C   6.63789584   2.21395226  -3.51641534
 C   6.83733195   0.84687497  -1.40166852
 H   6.46133329   0.80912991  -0.37620181
 H   6.35675625   0.03843919  -1.96712198
 O   5.81372043   1.82462559  -4.32129931
 C   8.33581387   0.70535307  -1.38385995
 C   9.03513818   0.27057713  -2.51480791
 H   8.47716022  -0.05855754  -3.39064922
 C   9.06592634   1.08726339  -0.25896653
 H   8.54376949   1.42701988   0.62743216
 C   10.42420274   0.26582591  -2.54187219
 H   10.95486351  -0.01641739  -3.44102422
 C   10.45892349   1.02713704  -0.25022642
 H   11.00878508   1.31010945   0.63977637
 O   12.49960534   0.53577122  -1.45069581
 H   12.86120756   0.79213576  -0.59894249
 C   11.13725722   0.60823174  -1.39172495
 N   7.86853748   2.66773680  -3.87762805
 H   8.58293043   2.78110993  -3.17529157
 C   8.37463943   2.43565692  -5.21398079
 H   7.69942036   1.74760740  -5.72481984
 C   9.77519683   1.72054435  -4.99503771
 C   8.54534282   3.71288192  -6.01702658
 H   9.24714220   4.37248351  -5.50813717
 H   8.99397855   3.44817933  -6.98018486
 O   9.82203117   0.56341563  -5.41915600
 C   7.21217258   4.41234596  -6.25393485
 H   6.50530213   3.69557174  -6.68640398
 H   6.78022010   4.73241407  -5.30487575
 C   7.33897104   5.60505303  -7.17792285
 H   7.79993960   5.29347458  -8.11728182
 H   6.34945464   6.01325729  -7.41412855
 N   8.18775070   6.63544852  -6.54089248
 H   8.04428831   6.73060554  -5.54632630
 N   8.36996807   7.89919143  -8.49591095
 H   8.36780196   8.83115720  -8.88083089
 H   7.73418485   7.25476835  -8.94009494
 N   9.08519416   8.77918786  -6.44115481
 H   9.64874258   9.43095811  -6.96903060
 H   9.51298444   8.50592660  -5.56478624
 C   8.53258109   7.76972633  -7.16346913
 O   10.63181085   2.42123780  -4.44377983
 H   5.60499995  -4.99934223  -1.26709891
