21
conf-433
 N  -10.13501801   3.07576310   7.51502037
 H  -10.94498647   2.83448915   6.94102595
 H  -9.88031341   2.25789953   8.07324505
 H  -10.40265404   3.82858685   8.14932624
 C  -8.97439139   3.45630861   6.67933466
 H  -9.29014018   4.21688413   5.95613025
 C  -8.51755774   2.21750461   5.91849356
 C  -7.83346021   4.05122784   7.52124848
 H  -7.62318190   3.31223112   8.30442967
 O  -8.44003908   1.11868878   6.45973701
 C  -6.55112063   4.28085462   6.72115305
 H  -6.71961927   5.02623726   5.93578959
 H  -5.77516649   4.66647305   7.39009291
 H  -6.15948294   3.36858976   6.25877806
 C  -8.24312421   5.37121475   8.17148293
 H  -8.48637713   6.10285476   7.39758820
 H  -9.10410417   5.28127113   8.83452649
 H  -7.41488142   5.76787944   8.76236896
 N  -8.22977243   2.42260911   4.60093247
 H  -7.98720896   3.36860681   4.34503384
 C  -7.58128196   1.38442760   3.81822747
 H  -7.78354765   0.45005566   4.34107291
 C  -6.07567904   1.63391627   3.79944081
 C  -8.18604042   1.26398415   2.39788978
 H  -9.26814943   1.24310390   2.56968738
 O  -5.59553574   2.76184831   3.86120409
 C  -7.81092517  -0.05708747   1.71355601
 H  -7.80927226  -0.86484402   2.45587528
 H  -6.79137228   0.01656831   1.32561938
 C  -7.83582717   2.45834959   1.51419649
 H  -6.75964128   2.49811848   1.33812653
 H  -8.14076539   3.40199260   1.97353696
 H  -8.33022138   2.38252157   0.54323368
 C  -8.76486277  -0.43433436   0.58782082
 H  -8.46442761  -1.36917111   0.11287169
 H  -9.78106492  -0.56324129   0.96954623
 H  -8.79948960   0.33602859  -0.18411549
 N  -5.32042365   0.51767482   3.66806160
 H  -5.75513935  -0.36964664   3.47252905
 C  -3.88339227   0.56123236   3.56760143
 H  -3.60797662   1.60115455   3.39726100
 C  -3.45737218  -0.32952998   2.39226031
 C  -3.21197578   0.06802808   4.86109150
 H  -2.12564489   0.09081792   4.72441121
 H  -3.49697392  -0.97635471   5.01352543
 O  -4.11580468  -1.30506691   2.05638073
 C  -3.59145172   0.88517788   6.07140739
 C  -2.76945443   1.91094591   6.54078045
 H  -1.83375348   2.12503420   6.03767728
 C  -4.78917536   0.63453334   6.74560835
 H  -5.45870726  -0.13664528   6.37498669
 C  -3.13152818   2.66047892   7.65921877
 H  -2.48251521   3.45795778   7.99931415
 C  -5.13134218   1.35157814   7.88670855
 H  -6.05486741   1.11073476   8.40301128
 C  -4.31039266   2.37649086   8.33682030
 H  -4.59869383   2.96332029   9.20357353
 N  -2.28919888   0.03457004   1.80009760
 H  -1.67294348   0.67899300   2.27450349
 C  -1.58349323  -0.83588974   0.88396972
 H  -2.01393647  -1.83744484   0.94597194
 C  -0.12401179  -0.84922937   1.33808924
 C  -1.64576775  -0.33508423  -0.56330516
 H  -0.97700757  -0.95514342  -1.16539534
 H  -1.23880160   0.67944975  -0.58815016
 O   0.32265478   0.02353661   2.05918556
 C  -3.02382581  -0.32854280  -1.22344885
 H  -3.69471225   0.28949419  -0.62512065
 C  -2.89544535   0.30216450  -2.60702694
 H  -2.23367122  -0.30467511  -3.23382639
 H  -2.47088808   1.30720371  -2.53615353
 H  -3.86353617   0.37890291  -3.10627637
 C  -3.61290880  -1.73128696  -1.32853061
 H  -2.95587033  -2.36691291  -1.92978032
 H  -4.58784430  -1.70001857  -1.82127851
 H  -3.74432947  -2.19498271  -0.35123835
 N   0.64353765  -1.88269779   0.86052306
 H   0.23832579  -2.39908230   0.09523895
 C   2.07042308  -1.63715138   0.68591587
 H   2.31593918  -0.82782813   1.37271491
 C   2.30942239  -1.17886800  -0.75743551
 C   2.92033323  -2.85612304   1.03583796
 H   2.70771187  -3.13552297   2.06771960
 H   3.97188027  -2.56637818   1.00404645
 O   1.56782842  -1.50981735  -1.67497723
 C   2.69598805  -4.04518096   0.10773136
 H   1.66461332  -4.40256515   0.15374448
 H   2.87248226  -3.75836078  -0.93229634
 C   3.61888718  -5.19251829   0.42729519
 O   4.58537514  -5.14345712   1.14425895
 O   3.25209319  -6.32286986  -0.22003349
 N   3.43052310  -0.45020416  -0.95108781
 H   4.08317030  -0.25392220  -0.20887406
 C   3.80961172   0.01967973  -2.26227247
 H   3.50223049  -0.72862003  -2.99656786
 C   5.32795914   0.18600163  -2.24538633
 C   3.14499859   1.36169531  -2.60932978
 H   3.43787725   2.11114418  -1.87344286
 H   3.47762715   1.69173516  -3.59233989
 O   5.93621526   0.39776573  -1.21294200
 C   1.63567049   1.25411924  -2.55654096
 N   1.04654168   0.81164225  -3.70860661
 H   0.07747046   0.57215089  -3.59572807
 H   1.58642887   0.22672196  -4.32104655
 O   0.98601946   1.58972986  -1.58414814
 N   5.94548346   0.10941037  -3.46385001
 H   5.34742483   0.20202534  -4.26714764
 C   7.25008307   0.73473307  -3.63800260
 H   7.81701039   0.55384562  -2.72592513
 C   7.04933586   2.23955185  -3.85541400
 C   7.96637704   0.11370845  -4.84999761
 H   7.92584524  -0.96889116  -4.73276907
 H   7.39668076   0.37385410  -5.74518661
 O   6.07052201   2.67635614  -4.43709491
 C   9.40109335   0.55520568  -4.96613491
 C   9.72281420   1.79142788  -5.54040768
 H   8.93082363   2.39279738  -5.98611066
 C   10.43585276  -0.22093712  -4.44389063
 H   10.21214269  -1.18216086  -4.00063293
 C   11.03056648   2.26118142  -5.54720139
 H   11.26116137   3.24038926  -5.94436364
 C   11.75948989   0.21300661  -4.49595446
 H   12.55113126  -0.41199863  -4.09961487
 O   13.33037442   1.93790967  -5.13043838
 H   13.93334528   1.28635359  -4.76453127
 C   12.05634419   1.45245138  -5.05537707
 N   8.04864436   3.03748250  -3.38460472
 H   8.93084420   2.62029285  -3.13429457
 C   8.13936482   4.41759062  -3.81042680
 H   7.39289982   4.59457893  -4.58518325
 C   9.58798223   4.54839784  -4.45170846
 C   7.97305950   5.40603431  -2.67013864
 H   8.75103755   5.24028432  -1.92606960
 H   8.12524848   6.41283625  -3.07379763
 O   9.58480942   4.83847718  -5.64976539
 C   6.58854210   5.31339137  -2.03977979
 H   5.83056522   5.40528130  -2.82617836
 H   6.44528611   4.32893503  -1.58983394
 C   6.35256519   6.38167251  -0.99396761
 H   6.53815784   7.36545947  -1.43050008
 H   5.31160899   6.36250911  -0.64952176
 N   7.28219117   6.17355935   0.13834196
 H   7.41721505   5.20313475   0.38607346
 N   6.64404959   8.17053079   1.18026068
 H   6.91281588   8.89380147   1.82812912
 H   6.26717820   8.48612301   0.30206769
 N   7.99879886   6.61208121   2.29520985
 H   8.20275602   7.31904606   2.98482773
 H   8.73710513   5.93501439   2.15879117
 C   7.31404345   7.00304478   1.19340170
 O   10.51871974   4.36277010  -3.65903887
 H   3.90421780  -6.99286171   0.02484444
