21
conf-472
 N  -8.15139087   1.57661938   8.37429291
 H  -9.04117805   1.09552418   8.51222081
 H  -7.39877253   0.91384674   8.57529109
 H  -8.07553330   2.35727943   9.02196952
 C  -7.97510609   2.01126694   6.97419753
 H  -8.95359107   2.26435173   6.54658069
 C  -7.37487885   0.83839154   6.20205868
 C  -7.06975266   3.26483678   6.88724845
 H  -7.55718065   3.99215220   7.54741421
 O  -6.65293203   0.01570345   6.74965879
 C  -5.66389569   2.99072472   7.41217311
 H  -5.14978207   2.31009307   6.72833481
 H  -5.08955605   3.91689304   7.47739474
 H  -5.68666210   2.52894958   8.39906696
 C  -7.00192454   3.87367687   5.48661255
 H  -6.40308968   3.25753784   4.80150229
 H  -7.99537267   4.00697508   5.04935687
 H  -6.52495345   4.85493703   5.53017382
 N  -7.68076502   0.77368445   4.87184536
 H  -8.05281648   1.61903839   4.46243193
 C  -6.78161537   0.03378809   3.98249052
 H  -6.32993151  -0.77512137   4.55129810
 C  -5.67047521   1.00915875   3.54862134
 C  -7.50647879  -0.56995918   2.77050067
 H  -7.91244760   0.26719167   2.19030658
 O  -5.92529669   1.99519335   2.81297135
 C  -8.66395221  -1.48435439   3.20474171
 H  -9.01548954  -2.02348832   2.32020148
 H  -9.50580370  -0.87027837   3.54324793
 C  -6.50491927  -1.31876964   1.89238978
 H  -6.08236991  -2.16209119   2.44048179
 H  -5.68800345  -0.66140246   1.58877089
 H  -6.98707848  -1.70242469   0.99314156
 C  -8.28768035  -2.46916556   4.30628089
 H  -9.08689434  -3.19502209   4.46617216
 H  -7.38118815  -3.02264780   4.04749725
 H  -8.10079101  -1.96593314   5.25734353
 N  -4.44613548   0.76019550   4.11715699
 H  -4.33843196  -0.13457905   4.56029445
 C  -3.24017541   1.36733060   3.54883119
 H  -3.55006310   2.37243655   3.24151978
 C  -2.81574685   0.55335314   2.33042854
 C  -2.12357734   1.45748177   4.57799574
 H  -1.77032790   0.44910295   4.80204387
 H  -2.55472962   1.87607099   5.48865897
 O  -2.12728596  -0.46493244   2.41590467
 C  -0.98767699   2.34287175   4.10728921
 C  -0.06905207   1.89014417   3.15772394
 H  -0.13947680   0.87494412   2.80513478
 C  -0.86407147   3.65590201   4.56709297
 H  -1.55693256   4.02597318   5.31145884
 C   0.91887823   2.73505851   2.66346990
 H   1.60224504   2.35777415   1.90410487
 C   0.14052069   4.49623670   4.08747166
 H   0.21324963   5.50965353   4.46672406
 C   1.03730185   4.03767377   3.12726433
 H   1.81689923   4.68350121   2.73968484
 N  -3.32047232   0.99473662   1.16284688
 H  -3.98582565   1.75609902   1.18819483
 C  -2.91504014   0.41204681  -0.11010257
 H  -3.04875346  -0.67072960  -0.03354449
 C  -1.42654321   0.70472514  -0.27910936
 C  -3.75020568   0.99350802  -1.23538951
 H  -3.41218987   0.57925088  -2.18744922
 H  -3.55878091   2.06567456  -1.27373559
 O  -1.01030552   1.83262079  -0.48765133
 C  -5.24967885   0.72580907  -1.09009012
 H  -5.56762920   1.03428716  -0.08517302
 C  -6.02085988   1.53873132  -2.12570142
 H  -5.72200371   1.23954607  -3.13407562
 H  -5.83262557   2.61033745  -2.02815869
 H  -7.09762225   1.37639385  -2.03674617
 C  -5.55465277  -0.75633984  -1.27145334
 H  -5.25810872  -1.07630619  -2.27283087
 H  -6.62324653  -0.95652017  -1.16001394
 H  -5.02699491  -1.38918558  -0.55223223
 N  -0.59614016  -0.36721268  -0.10186277
 H  -1.00346579  -1.15941220   0.36870932
 C   0.78519126  -0.10383059   0.25263423
 H   0.79903326   0.59655730   1.09398532
 C   1.53347161   0.57678999  -0.88735405
 C   1.51528794  -1.37742373   0.66803558
 H   0.98074415  -1.84128241   1.49791078
 H   2.50978176  -1.09471151   1.02571809
 O   1.31982760   0.38457446  -2.06773409
 C   1.66892389  -2.36127664  -0.48969366
 H   0.68834737  -2.69828714  -0.83271308
 H   2.15628648  -1.88052569  -1.33488854
 C   2.46405882  -3.57494260  -0.11034001
 O   3.40501035  -4.03073453  -0.71276801
 O   1.99504447  -4.13813286   1.02267890
 N   2.53540081   1.40837002  -0.45457935
 H   2.88394600   1.22391874   0.46883376
 C   3.57464434   1.79271011  -1.40355347
 H   3.07088426   2.23758391  -2.26503547
 C   4.34512549   0.53424694  -1.82494354
 C   4.50888206   2.82608285  -0.77197444
 H   4.88905056   2.45831919   0.18098538
 H   5.36649357   3.00461049  -1.42376732
 O   4.47964814  -0.42470089  -1.07690288
 C   3.82234363   4.17545286  -0.60609944
 N   4.05409712   4.80610278   0.58339051
 H   3.75071416   5.76425074   0.63604433
 H   4.78771485   4.49769468   1.19391681
 O   3.13371014   4.67040409  -1.47989738
 N   4.84918232   0.56905613  -3.09157047
 H   5.00982782   1.45709098  -3.54037786
 C   5.70321369  -0.47963233  -3.59270294
 H   5.92524370  -1.17109473  -2.77905607
 C   6.98198215   0.19871711  -4.09106349
 C   5.05369818  -1.25289396  -4.75060532
 H   4.83282871  -0.53695509  -5.54770975
 H   5.79167152  -1.95908775  -5.15025143
 O   7.01099661   1.37817734  -4.39008739
 C   3.80650279  -2.00597303  -4.36907214
 C   3.82058413  -3.39455078  -4.22539539
 H   4.74532621  -3.93845426  -4.36603256
 C   2.59895312  -1.33859153  -4.15413835
 H   2.55684085  -0.25815942  -4.23016097
 C   2.66599865  -4.10452115  -3.89822691
 H   2.68075716  -5.17876434  -3.77039959
 C   1.43057127  -2.03253455  -3.84371625
 H   0.51151548  -1.48381707  -3.65836802
 O   0.35835625  -4.14289113  -3.38269308
 H  -0.39239074  -3.54191239  -3.36892331
 C   1.47290266  -3.41644789  -3.71538624
 N   8.04967809  -0.62124635  -4.21960140
 H   7.97195516  -1.62959290  -4.22774431
 C   9.23538323  -0.19571243  -4.91689988
 H   8.94991267   0.36847073  -5.81835033
 C   9.93263008  -1.51845200  -5.34740811
 C   10.13844625   0.68806906  -4.05168221
 H   9.48136624   1.37866712  -3.52514632
 H   10.63179095   0.07389413  -3.29290201
 O   11.03158797  -1.42976183  -5.90509330
 C   11.16558590   1.46014262  -4.87126536
 H   11.77473597   0.76762591  -5.45650086
 H   10.64182786   2.10056010  -5.58713644
 C   12.06112646   2.31765655  -4.00061014
 H   12.52924894   1.68947264  -3.23977659
 H   12.86227947   2.76921860  -4.59693056
 N   11.25582352   3.36556952  -3.33556353
 H   10.53923844   3.77035843  -3.92045137
 N   12.97909727   3.96004003  -1.87618602
 H   13.46038819   4.72755853  -1.43355685
 H   13.57603589   3.30384855  -2.35563819
 N   11.06564117   5.30555297  -2.06552711
 H   11.30522269   5.69313157  -1.16365330
 H   10.06619441   5.25066418  -2.21952359
 C   11.77829029   4.20991170  -2.43638645
 O   9.28288779  -2.55901526  -5.10374735
 H   2.55026917  -4.91086150   1.18629914
