21
conf-549
 N  -10.09287034   1.34951249   7.35324011
 H  -10.95306898   1.50369096   6.82397823
 H  -9.77410135   0.39341069   7.18323268
 H  -10.30275646   1.45083903   8.34599343
 C  -9.02543931   2.28547230   6.93227507
 H  -9.42146565   3.30714251   6.94414448
 C  -8.62645410   1.91897594   5.50626357
 C  -7.80458910   2.23155436   7.86669062
 H  -7.45448772   1.19509439   7.85200378
 O  -8.40407916   0.75048657   5.19387324
 C  -6.67088442   3.14070953   7.38733959
 H  -7.00148982   4.18552432   7.39069443
 H  -5.81529964   3.05936407   8.06064096
 H  -6.31861959   2.90352523   6.37865779
 C  -8.16339199   2.61095627   9.30231914
 H  -8.57288928   3.62415196   9.33252442
 H  -8.88615989   1.93675081   9.76336886
 H  -7.26507492   2.59281948   9.92308965
 N  -8.55907990   2.95608193   4.61950479
 H  -8.39306681   3.86772648   5.02242632
 C  -7.97538490   2.73551394   3.30370172
 H  -8.18036336   1.69286662   3.06407940
 C  -6.45953669   2.93441953   3.37399807
 C  -8.64230173   3.60608166   2.21101442
 H  -9.71466900   3.44612453   2.35607579
 O  -5.92594637   3.79669791   4.09684448
 C  -8.28942181   3.10837994   0.80463952
 H  -8.32518949   2.01130129   0.78964965
 H  -7.25664297   3.39019061   0.57121927
 C  -8.31901836   5.08785868   2.37698472
 H  -7.24217268   5.24269908   2.27990331
 H  -8.62240777   5.45397763   3.36095402
 H  -8.82172428   5.69062949   1.61930634
 C  -9.22240780   3.63739797  -0.27639678
 H  -8.93798660   3.25612522  -1.25832889
 H  -10.25433492   3.33178215  -0.08336221
 H  -9.20549661   4.72719956  -0.32494251
 N  -5.74533364   2.13084235   2.55515957
 H  -6.17206410   1.56504803   1.83993218
 C  -4.30468991   2.18576271   2.49361611
 H  -3.99972085   3.23103112   2.35766116
 C  -3.92554427   1.37949778   1.25014120
 C  -3.62478098   1.68730040   3.78174151
 H  -3.99731183   2.32429470   4.58612957
 H  -2.55147328   1.86746402   3.68624916
 O  -4.76485445   1.01814497   0.44109644
 C  -3.90860334   0.24810539   4.09505673
 C  -5.10706496  -0.11698785   4.71617759
 H  -5.82882570   0.64345838   4.98571582
 C  -2.99797202  -0.75988328   3.76564080
 H  -2.07029084  -0.48853088   3.28046662
 C  -5.39141282  -1.45544952   4.98307891
 H  -6.33383405  -1.70862832   5.45206641
 C  -3.27609472  -2.09757034   4.04238138
 H  -2.55485171  -2.85558149   3.78452829
 C  -4.47943666  -2.44883589   4.64819847
 H  -4.70500535  -3.48861797   4.86057046
 N  -2.61015678   1.13548412   1.09115088
 H  -1.95290623   1.25348502   1.84264920
 C  -2.14213208   0.30172497   0.00984428
 H  -2.87834133  -0.49538099  -0.14224085
 C  -0.82025003  -0.29899037   0.50038839
 C  -2.02317568   1.10670127  -1.28830352
 H  -1.20272081   1.81924254  -1.18676232
 H  -2.94029944   1.69820719  -1.35280839
 O  -0.35659870  -0.01343181   1.59530767
 C  -1.88972504   0.32515176  -2.60095517
 H  -0.91088476  -0.15969703  -2.66552303
 C  -2.97672788  -0.73843577  -2.72039888
 H  -3.94717740  -0.30123000  -2.46026760
 H  -2.80000147  -1.58944635  -2.05933079
 H  -3.04269885  -1.12498884  -3.74031980
 C  -1.97877478   1.31372965  -3.76331724
 H  -2.97845166   1.74885464  -3.80110669
 H  -1.79400203   0.80816490  -4.71515041
 H  -1.26247577   2.12897774  -3.66395499
 N  -0.22637647  -1.15485905  -0.35719634
 H  -0.67845510  -1.37868418  -1.22745359
 C   1.11501014  -1.65077566  -0.12333168
 H   1.55530187  -1.01391060   0.65494027
 C   1.99530742  -1.48726209  -1.37142926
 C   1.12422613  -3.08300497   0.40558980
 H   2.16130779  -3.36644244   0.58141821
 H   0.72621638  -3.76410686  -0.34827228
 O   2.89992547  -2.26369575  -1.63676564
 C   0.31303695  -3.20872826   1.69447713
 H  -0.74045963  -2.97014867   1.52315316
 H   0.34708963  -4.24098736   2.05694676
 C   0.83880438  -2.33655938   2.80092290
 O   1.98344803  -1.96815035   2.92779495
 O  -0.12424460  -2.03320180   3.69649418
 N   1.71144230  -0.40117395  -2.13410756
 H   1.15056991   0.33595006  -1.73197909
 C   2.59294337   0.00256667  -3.20791660
 H   2.84654628  -0.89609192  -3.77470571
 C   3.86615853   0.63685846  -2.64507624
 C   1.88012690   1.01546771  -4.11582825
 H   2.43092917   1.14830699  -5.04737168
 H   0.87526036   0.65582879  -4.33937141
 O   3.93036637   1.10662969  -1.52079298
 C   1.76032483   2.33737868  -3.38191970
 N   2.67957995   3.28789463  -3.72824049
 H   2.71052471   4.07907194  -3.10449349
 H   3.55598126   2.98052265  -4.12397778
 O   0.89527133   2.53419622  -2.53380346
 N   4.89376433   0.72304437  -3.52421995
 H   4.84047198   0.37382021  -4.46688176
 C   6.20381682   1.18110830  -3.12165261
 H   6.10570412   2.15956090  -2.64039755
 C   7.01581148   1.32424563  -4.41193219
 C   6.88347527   0.26126804  -2.08897504
 H   7.81162057   0.74700094  -1.77754951
 H   6.22626533   0.22159576  -1.22147697
 O   6.55674227   1.04201716  -5.50321861
 C   7.14667885  -1.12257105  -2.60270754
 C   6.17497134  -2.12669130  -2.52128308
 H   5.21052112  -1.92430096  -2.06571165
 C   8.36767632  -1.45329531  -3.19618957
 H   9.13673529  -0.68931738  -3.26656320
 C   6.40995981  -3.40466722  -3.02750493
 H   5.65038348  -4.17405615  -2.96408216
 C   8.61744866  -2.72678222  -3.70729035
 H   9.57532338  -2.94168935  -4.16536513
 O   7.80385306  -4.97126301  -4.09718543
 H   8.68234508  -5.04398401  -4.47797552
 C   7.63008005  -3.70287619  -3.61965507
 N   8.27231364   1.81210208  -4.23702043
 H   8.75375853   1.66896691  -3.36438151
 C   9.21739624   1.82697381  -5.31568537
 H   8.92985607   1.08621124  -6.07733551
 C   10.58714571   1.40723133  -4.69071635
 C   9.38285187   3.19162430  -5.98082496
 H   9.63655402   3.93950121  -5.22398179
 H   10.23846188   3.11338236  -6.65764991
 O   11.55735332   1.36424823  -5.44838442
 C   8.14230823   3.63257701  -6.74638905
 H   7.87614831   2.87362376  -7.48110413
 H   7.29701140   3.71964729  -6.07130852
 C   8.36441791   4.95965079  -7.45487437
 H   8.56120805   5.73576237  -6.71193106
 H   9.24973298   4.90661243  -8.09734995
 N   7.21409422   5.43576230  -8.24340249
 H   6.45919629   5.83863472  -7.70590119
 N   7.57861097   3.88964444  -9.95689678
 H   7.45969939   3.67004593  -10.93297330
 H   8.49398719   3.71765553  -9.57508948
 N   5.66332838   5.24830687  -9.95200232
 H   5.48484980   4.96746597  -10.90497538
 H   5.32207220   6.16931929  -9.71040313
 C   6.83901480   4.86449269  -9.39700706
 O   10.53999324   1.13246486  -3.46745392
 H   0.29155185  -1.43783898   4.33285551
