21
conf-448
 N  -5.21008500   1.14877095   3.84159595
 H  -5.65052560   0.63622937   3.06741034
 H  -4.82210865   0.45019906   4.50036512
 H  -5.86442445   1.75948732   4.32577205
 C  -4.06865010   1.88026567   3.27457967
 H  -4.38622392   2.87425247   2.93677309
 C  -3.63648433   1.10595197   2.02549673
 C  -2.94955351   2.06297114   4.30152930
 H  -2.15167564   2.68857874   3.89595281
 H  -3.35958607   2.58654063   5.16696312
 O  -4.37580491   0.27850440   1.51221711
 C  -2.40763920   0.73859623   4.81582601
 N  -1.06253621   0.64508697   4.91235489
 H  -0.66684566  -0.21856704   5.24523499
 H  -0.45823764   1.39120501   4.62466122
 O  -3.16149367  -0.16313334   5.15093085
 N  -2.42134070   1.40211687   1.52050060
 H  -1.88365640   2.19170503   1.84153849
 C  -1.96022927   0.78337752   0.29134829
 H  -2.23302066  -0.27409453   0.31131714
 C  -0.45426905   0.96615229   0.28943934
 C  -2.59043228   1.43164534  -0.94923885
 H  -3.66438237   1.24439485  -0.89426453
 H  -2.43504191   2.51034099  -0.89533412
 O   0.02447329   2.08386515   0.48759369
 C  -2.00133098   0.92326197  -2.23991183
 C  -1.31336970   1.79425984  -3.08079856
 H  -1.25416183   2.84493690  -2.81140836
 C  -2.09129803  -0.42365440  -2.59545895
 H  -2.63641512  -1.10171604  -1.94632166
 C  -0.72443341   1.33360035  -4.25348990
 H  -0.19497084   2.02723689  -4.89834967
 C  -1.49939246  -0.88981229  -3.76944627
 H  -1.58020408  -1.93930116  -4.02775948
 C  -0.80698231  -0.01365037  -4.59890421
 H  -0.34472301  -0.37322675  -5.51062972
 N   0.29000077  -0.12566578   0.02136019
 H  -0.16029686  -1.02702287   0.12049695
 C   1.74100911  -0.12693731   0.17201150
 H   1.98534006   0.52553474   1.01974911
 C   2.39904641   0.42911322  -1.10316369
 C   2.25331061  -1.54720777   0.41113429
 H   3.33182232  -1.52850444   0.56156738
 H   2.05454970  -2.14600731  -0.47686052
 O   3.12567438  -0.24089787  -1.82430088
 C   1.54219658  -2.21587391   1.57053134
 N   2.31821603  -2.52357419   2.63747471
 H   1.87787609  -2.96467968   3.42522803
 H   3.28055835  -2.24877258   2.68687000
 O   0.35171527  -2.49040084   1.52172405
 N   2.13129528   1.72425980  -1.38774467
 H   1.49521019   2.23674041  -0.78621264
 C   2.66261496   2.31196967  -2.60154084
 H   2.34402381   1.70921140  -3.45961419
 C   4.18151088   2.28991576  -2.62014933
 C   2.14294014   3.74187192  -2.75383886
 H   1.05442683   3.70297161  -2.62163012
 H   2.54627770   4.35266528  -1.94455064
 O   4.85005167   2.02779251  -3.59036548
 C   2.46523703   4.35667950  -4.10781890
 H   3.54283254   4.34930446  -4.27939632
 H   2.01601103   3.74795776  -4.89745666
 C   1.92747923   5.77618687  -4.23691342
 H   0.84531006   5.77415204  -4.10035252
 H   2.36671775   6.40864329  -3.46146350
 N   2.19717002   6.39302414  -5.52265987
 H   3.17232174   6.51559194  -5.73696405
 N   1.97834722   6.57505683  -7.79795281
 H   1.36499592   6.46830188  -8.59204218
 H   2.27281296   7.53578744  -7.69081932
 N   0.37904428   5.32869364  -6.50727643
 H  -0.06427633   5.21693462  -7.41615223
 C   1.43482663   6.04453683  -6.61536550
 O   4.71454488   2.66015445  -1.43908639
 H   5.67196587   2.62964062  -1.54983782
