21
conf-34
 N  -6.09573797   2.80827821   1.68545252
 H  -6.34936556   2.53395146   0.73406596
 H  -6.34160568   2.02387397   2.29608891
 H  -6.64427386   3.62702060   1.94601815
 C  -4.64206936   3.05985104   1.76412973
 H  -4.36829010   3.80689262   1.01241122
 C  -3.92546353   1.74542510   1.46325718
 C  -4.21705784   3.60104006   3.12450618
 H  -4.82530744   4.48258284   3.34649061
 H  -4.40786560   2.86253020   3.90556185
 O  -4.43523745   0.67365643   1.75016879
 C  -2.76333372   4.03507714   3.12218845
 N  -2.11817800   3.98245416   4.31295604
 H  -1.16085075   4.28819998   4.33225955
 H  -2.57384567   3.68902175   5.15724256
 O  -2.21577273   4.43228797   2.10253521
 N  -2.72151258   1.85110873   0.85708963
 H  -2.24913537   2.74805560   0.78406325
 C  -2.03212944   0.67904524   0.38206505
 H  -2.37144900  -0.16605075   0.98405134
 C  -0.53232214   0.89870561   0.53070581
 C  -2.36577949   0.38700043  -1.09807606
 H  -2.03607334   1.24517759  -1.68916607
 H  -1.78151912  -0.47802955  -1.42045565
 O  -0.03154693   2.00523920   0.45133780
 C  -3.83439142   0.14451737  -1.30918139
 C  -4.38375009  -1.13134051  -1.18163427
 H  -3.73344755  -1.97525292  -0.97115158
 C  -4.69304118   1.21043707  -1.59871554
 H  -4.27453507   2.20884682  -1.70004128
 C  -5.75736000  -1.33454547  -1.30585740
 H  -6.15991393  -2.33478334  -1.19579836
 C  -6.06373675   1.00737576  -1.72300226
 H  -6.70974355   1.85332398  -1.93203156
 C  -6.60673035  -0.26277254  -1.56886960
 H  -7.67401554  -0.41909045  -1.66759320
 N   0.20620284  -0.23820069   0.72171668
 H  -0.24936792  -1.10217561   0.47639869
 C   1.62591851  -0.21238554   0.40233754
 H   1.97551876   0.80126406   0.58291911
 C   1.80916123  -0.56787295  -1.08422385
 C   2.40198393  -1.16849771   1.30414731
 H   2.14589239  -2.21035392   1.09623110
 H   2.11214032  -0.95910643   2.33464522
 O   0.99214845  -1.23439734  -1.69915564
 C   3.90149688  -0.94064043   1.20236544
 N   4.68659019  -1.99962631   1.50983379
 H   5.68061201  -1.87103924   1.43710959
 H   4.30468898  -2.88560629   1.78473178
 O   4.36505687   0.14517735   0.88094329
 N   2.95052199  -0.09510856  -1.64313364
 H   3.64486569   0.35846709  -1.05776556
 C   3.30044291  -0.43483775  -2.99885175
 H   2.64190103  -1.24673310  -3.32019108
 C   4.72756224  -0.93291404  -3.06295988
 C   3.13517520   0.73994606  -3.97301032
 H   3.78754974   1.56124918  -3.67599587
 H   3.46609394   0.40559641  -4.95754598
 O   5.57998125  -0.74671326  -2.23234742
 C   1.69676747   1.22630377  -4.06248840
 H   1.03847999   0.38306668  -4.29161783
 H   1.37346144   1.63010749  -3.10079148
 C   1.53074747   2.30712479  -5.11605395
 H   1.91334599   1.94742322  -6.07195159
 H   0.46809281   2.54651740  -5.24528968
 N   2.28631833   3.48331179  -4.72759246
 H   2.22125861   3.75123246  -3.75989156
 N   2.27189841   4.35823928  -6.90127935
 H   2.22353941   5.20736771  -7.44194787
 H   1.54254818   3.71095550  -7.15443721
 N   2.70294763   5.71522142  -4.97640330
 H   2.80712166   6.44196966  -5.67705610
 C   2.40214642   4.59799520  -5.52761325
 O   4.96073615  -1.59879708  -4.21190767
 H   5.89190110  -1.85256097  -4.18670877
