21
conf-315
 N  -6.14201524   1.88069044   3.31162107
 H  -6.80789106   1.54139480   2.61415731
 H  -5.88180212   1.07324926   3.88494537
 H  -6.60150711   2.56946617   3.90465545
 C  -4.95308018   2.45263844   2.64652020
 H  -5.26728995   3.28413523   2.00452918
 C  -4.33685045   1.37580943   1.75436465
 C  -3.93358099   2.99936845   3.65758969
 H  -3.15872256   3.55677491   3.12780246
 H  -4.45015349   3.67749311   4.33917346
 O  -4.76266094   0.22930810   1.75366743
 C  -3.24526284   1.88977729   4.41796725
 N  -3.94225092   1.37906349   5.48001044
 H  -3.44557648   0.72008859   6.05699613
 H  -4.62430323   1.95883243   5.93918469
 O  -2.18074449   1.42006864   4.05685165
 N  -3.31549563   1.77986785   0.96141182
 H  -2.89729540   2.69248233   1.05859389
 C  -2.63165776   0.86929384   0.07206347
 H  -2.78518490  -0.14469371   0.45072670
 C  -1.15656366   1.25553469   0.07009468
 C  -3.19495902   0.94852679  -1.35782527
 H  -3.03488924   1.96191344  -1.73327003
 H  -2.62397455   0.26899565  -1.99665580
 O  -0.79778544   2.40492889   0.26274370
 C  -4.65833525   0.60211738  -1.40513692
 C  -5.07726017  -0.72235990  -1.52216365
 H  -4.33090045  -1.50905170  -1.59759648
 C  -5.63037217   1.60096584  -1.31053368
 H  -5.31122284   2.63311785  -1.19957110
 C  -6.43252486  -1.04585416  -1.53269201
 H  -6.73304148  -2.08347641  -1.62190374
 C  -6.98754292   1.28261483  -1.32442603
 H  -7.72251152   2.07569193  -1.25652937
 C  -7.39257460  -0.04293323  -1.43207565
 H  -8.44771133  -0.29180412  -1.44416064
 N  -0.28259896   0.23820344  -0.15989225
 H  -0.58197686  -0.62169203  -0.59416736
 C   1.13630906   0.49594705  -0.27275379
 H   1.27364225   1.56256689  -0.45195521
 C   1.65346370  -0.34550339  -1.44599546
 C   1.90789196   0.11213144   1.00221525
 H   2.97273429   0.28892710   0.85305202
 H   1.75315860  -0.95089115   1.19368397
 O   1.03905042  -1.31856761  -1.85279333
 C   1.46128855   0.92636199   2.21153299
 N   0.36265806   0.42348299   2.82692443
 H  -0.10957620   1.04118800   3.47186385
 H  -0.21211258  -0.21697558   2.30939190
 O   2.06136629   1.91313938   2.59847675
 N   2.84185138   0.05693716  -1.95995544
 H   3.33643830   0.80537159  -1.50465502
 C   3.56069053  -0.77603794  -2.89489121
 H   3.01530492  -1.72407284  -2.94453291
 C   4.94144225  -1.14585597  -2.39392486
 C   3.62963271  -0.17829598  -4.29917693
 H   4.12532899   0.79423262  -4.25354336
 H   4.26052896  -0.82506884  -4.91311030
 O   5.79333700  -1.65091255  -3.07706445
 C   2.25974579  -0.02347639  -4.94987829
 H   1.59512207   0.56806110  -4.31507104
 H   2.37823685   0.53193130  -5.88354623
 C   1.56936356  -1.34128604  -5.27838227
 H   2.22769415  -1.95550804  -5.89783877
 H   1.35135422  -1.89482884  -4.36418864
 N   0.35619204  -1.06134032  -6.01448848
 H  -0.17030810  -0.25072599  -5.74180718
 N   0.17034605  -3.25805663  -6.80432968
 H  -0.48022703  -3.97211964  -7.09071974
 H   0.77655729  -3.57903126  -6.06567412
 N  -1.64270303  -1.69526180  -6.90842565
 H  -2.11782837  -2.47862610  -7.34410684
 C  -0.44878390  -2.02192158  -6.57410284
 O   5.10858777  -0.90205160  -1.07597953
 H   5.99742667  -1.20931458  -0.85271538
