21
conf-365
 N  -5.26063754   2.85037585   3.40851649
 H  -6.17616266   2.86188987   2.95612825
 H  -5.07363169   1.88006209   3.68707927
 H  -5.26776183   3.45751717   4.22504580
 C  -4.17884257   3.19457300   2.46520058
 H  -4.58188012   3.86079460   1.70145954
 C  -3.72145814   1.86800861   1.83357954
 C  -3.03406185   3.89005424   3.20267099
 H  -3.44523032   4.71937625   3.78668027
 H  -2.58616504   3.20135125   3.92274939
 O  -3.97413624   0.80636877   2.38374018
 C  -1.87786092   4.46163573   2.41002057
 N  -2.11006262   4.78595581   1.09599150
 H  -1.36170259   5.28097933   0.64030185
 H  -3.04517251   4.97938754   0.79173098
 O  -0.79351440   4.62647326   2.93798494
 N  -3.06013093   1.96377111   0.65850581
 H  -2.64891658   2.87433274   0.44988428
 C  -2.41713507   0.79870836   0.09435923
 H  -2.93258605  -0.06186066   0.52816382
 C  -0.95609188   0.72812945   0.56670352
 C  -2.58447433   0.76783157  -1.43297196
 H  -2.15754945  -0.16598493  -1.81236368
 H  -3.65918338   0.72681449  -1.63267761
 O  -0.56615178   1.31356666   1.56487523
 C  -1.97631150   1.95952014  -2.12064540
 C  -2.70263359   3.13773147  -2.27452620
 H  -3.72764602   3.18172729  -1.91293077
 C  -0.66496967   1.92902839  -2.59381013
 H  -0.09029882   1.01698831  -2.51172847
 C  -2.13269361   4.26715087  -2.85716955
 H  -2.72332160   5.17202454  -2.95298354
 C  -0.08851025   3.05607486  -3.17121905
 H   0.94276516   2.99006862  -3.49320033
 C  -0.81998505   4.22898041  -3.30605010
 H  -0.37250186   5.10408279  -3.75596848
 N  -0.13319082  -0.07621194  -0.14815610
 H  -0.38279161  -0.44556882  -1.04947475
 C   1.28366663  -0.12545442   0.13382047
 H   1.60315460   0.85882236   0.47641533
 C   1.96501837  -0.44799147  -1.20224665
 C   1.56773363  -1.14739795   1.23792420
 H   1.23513364  -2.13810079   0.92785404
 H   0.97801534  -0.84221334   2.10311367
 O   1.30935551  -0.84315861  -2.15744600
 C   3.02397733  -1.26615714   1.62142448
 N   3.62885870  -0.08394170   1.95364587
 H   4.55944863  -0.15576564   2.33395085
 H   3.05773980   0.68491144   2.25625983
 O   3.62882539  -2.32118242   1.58409225
 N   3.30039533  -0.25645725  -1.26049105
 H   3.82546710   0.03458785  -0.44870622
 C   4.03510659  -0.59595826  -2.45301273
 H   3.35395025  -1.14753302  -3.10256710
 C   5.21787553  -1.47241478  -2.10279525
 C   4.56034387   0.62863790  -3.21572539
 H   5.34184639   1.11307823  -2.62517355
 H   5.03410621   0.26038999  -4.12727432
 O   5.79198859  -1.47892582  -1.04345632
 C   3.49945367   1.65772341  -3.58635674
 H   2.65187406   1.16667458  -4.07381811
 H   3.12264011   2.14937886  -2.68597025
 C   4.10559065   2.71525709  -4.50313818
 H   5.02254045   3.09349005  -4.04730732
 H   4.37020923   2.25704288  -5.45913344
 N   3.25970433   3.86012786  -4.77102344
 H   2.45613748   3.70817396  -5.35294368
 N   2.24252742   5.85988598  -4.29393973
 H   2.29307052   6.69976146  -3.73627690
 H   2.34679098   6.07079577  -5.27641265
 N   3.82090668   4.88284370  -2.76322576
 H   3.63068265   5.73499273  -2.24123385
 C   3.15784344   4.87627209  -3.85686382
 O   5.61229291  -2.21765196  -3.15544155
 H   6.38945471  -2.70631850  -2.85550235
