21
conf-772
 N  -4.84610069  -1.00435425  -3.49334641
 H  -5.46974801  -0.30720959  -3.08713066
 H  -4.28352297  -0.54912502  -4.23554854
 H  -5.37293769  -1.76078468  -3.92731841
 C  -3.87245405  -1.51871106  -2.52012255
 H  -4.31677675  -2.35456849  -1.97144605
 C  -3.52202596  -0.43141732  -1.50555506
 C  -2.62333051  -2.02715137  -3.25331049
 H  -1.88050577  -2.41092816  -2.54829924
 H  -2.92561913  -2.84900489  -3.90501708
 O  -3.66101549   0.75639781  -1.73202437
 C  -1.99687852  -0.97521490  -4.16095713
 N  -0.66971004  -0.81611307  -4.03611082
 H  -0.22632134  -0.10574527  -4.59303209
 H  -0.15645428  -1.23784692  -3.27440193
 O  -2.65939959  -0.36289340  -4.98855669
 N  -2.99404434  -0.88563781  -0.33198022
 H  -3.11336578  -1.85262317  -0.08154657
 C  -2.76059370   0.05015571   0.76533097
 H  -3.60934618   0.72845889   0.87485031
 C  -1.54583670   0.94385458   0.50017872
 C  -2.58227136  -0.75255645   2.06328279
 H  -3.51328611  -1.29568839   2.23207897
 H  -1.78966430  -1.48459253   1.91350128
 O  -1.47754979   2.08962858   0.91528004
 C  -2.26406496   0.12392660   3.24319394
 C  -0.98646564   0.15360355   3.79785577
 H  -0.21366893  -0.49420649   3.39322935
 C  -3.24004081   0.96993390   3.76582393
 H  -4.22974302   0.95742286   3.31881432
 C  -0.69047320   1.00421663   4.86003766
 H   0.30576493   1.00619615   5.28660578
 C  -2.95478552   1.82110279   4.83111643
 H  -3.73017844   2.46775250   5.22570447
 C  -1.67417274   1.84049258   5.37855283
 H  -1.44490849   2.50191799   6.20674617
 N  -0.52827431   0.35021938  -0.16285048
 H  -0.64050812  -0.56150581  -0.56485537
 C   0.69383870   1.05637361  -0.46606056
 H   0.45702942   2.06092913  -0.82609313
 C   1.40423869   0.24842361  -1.55354651
 C   1.58057395   1.20615012   0.78006839
 H   2.09948239   0.26377193   0.98088646
 H   0.93361143   1.40262148   1.64228277
 O   1.11330457  -0.91972565  -1.78681941
 C   2.59738984   2.33568011   0.65478912
 N   3.44226144   2.47187485   1.70453947
 H   4.12403297   3.20935186   1.66861732
 H   3.37054993   1.88923986   2.51873684
 O   2.66494715   3.06159447  -0.32810868
 N   2.38466920   0.89108166  -2.21722605
 H   2.67163339   1.79669257  -1.86125877
 C   3.32976415   0.11585163  -2.99513590
 H   2.75915556  -0.63381448  -3.55607549
 C   4.24596603  -0.66436936  -2.07083035
 C   4.10889526   1.00132485  -3.96325579
 H   4.67194793   1.74541820  -3.39605019
 H   4.83910003   0.38239964  -4.48549200
 O   4.22773436  -0.61910868  -0.86768223
 C   3.19825041   1.67706176  -4.97776505
 H   2.61015678   0.91263933  -5.49776228
 H   2.49047630   2.33493178  -4.47475764
 C   3.96989276   2.49076070  -6.00526707
 H   4.51972141   3.30154113  -5.52553033
 H   4.71369378   1.86238394  -6.50985484
 N   3.05303312   3.08247222  -6.97112706
 H   2.40107368   2.43381090  -7.37601283
 N   2.61394666   4.27705938  -8.88377552
 H   2.88421378   5.05842410  -9.46196178
 H   1.68031483   4.40169114  -8.51796596
 N   4.73562017   4.47112755  -7.76338953
 H   4.92496288   5.14045661  -8.50457707
 C   3.55794233   3.99027659  -7.88143178
 O   5.09622063  -1.44359814  -2.76809457
 H   5.63203077  -1.91415499  -2.11821448
