21
conf-962
 N  -7.98169577   1.65840686   2.93451183
 H  -8.96283400   1.76292267   2.70068338
 H  -7.94358549   1.17282889   3.82570124
 C  -7.41991800   2.99832414   3.08298425
 H  -7.76434545   3.59345768   2.23301378
 C  -5.89104576   2.99014258   2.99959960
 C  -7.85429843   3.73572481   4.34859659
 H  -7.61892824   3.15075987   5.24129451
 H  -7.30703157   4.67795986   4.42324342
 O  -5.22550197   3.97747607   3.28223982
 C  -9.34623818   4.03072090   4.29066594
 N  -9.89440874   4.46035575   5.45808955
 H  -10.87096472   4.69553426   5.46333893
 H  -9.34419831   4.59645498   6.28611805
 O  -9.99865578   3.89468264   3.26664128
 N  -5.35623452   1.83853694   2.55745356
 H  -5.97715687   1.10621513   2.25392533
 C  -3.93877312   1.73098140   2.29058824
 H  -3.61322916   2.68995975   1.87736141
 C  -3.75176136   0.62570947   1.25480612
 C  -3.12294108   1.49781082   3.58522615
 H  -3.56664659   2.19920992   4.29930045
 O  -4.59889568  -0.22528044   1.04521573
 C  -1.64591832   1.87647057   3.45716403
 H  -1.11585947   1.14391782   2.84157110
 H  -1.21606417   1.78347230   4.45987935
 C  -3.26040702   0.07264353   4.11711161
 H  -2.75571953  -0.63083731   3.45094827
 H  -2.80590442  -0.00695207   5.10675470
 H  -4.30927941  -0.22389899   4.19147202
 C  -1.40150208   3.28858680   2.94260107
 H  -0.38862707   3.62124849   3.17455205
 H  -1.52798992   3.35068217   1.85638235
 H  -2.10448568   3.99385336   3.40038112
 N  -2.55293363   0.63551839   0.63320446
 H  -1.82610444   1.28586690   0.87326629
 C  -2.11834736  -0.43443757  -0.23076304
 H  -2.38475219  -1.39215080   0.23009351
 C  -0.59745108  -0.29260010  -0.29106980
 C  -2.77112410  -0.36533224  -1.60800880
 H  -2.42633578  -1.18635117  -2.23836754
 H  -3.85187656  -0.43475251  -1.49003870
 H  -2.53292951   0.58051181  -2.09781492
 O  -0.03366723   0.69951091   0.15591288
 N   0.06973169  -1.30417770  -0.89359610
 H  -0.41667937  -2.17556047  -1.03338646
 C   1.52469013  -1.38227627  -0.80374596
 H   1.80833177  -0.98809395   0.17807673
 C   2.14822246  -0.51656778  -1.89672102
 C   1.98610171  -2.84046600  -0.90657836
 H   1.73942753  -3.20261691  -1.90598319
 O   2.54216455  -0.97921035  -2.97140314
 C   3.47209436  -2.99132348  -0.63276393
 H   4.06836280  -2.41542347  -1.34255341
 H   3.75476415  -4.04311829  -0.70686072
 H   3.69460454  -2.63727352   0.37644418
 O   1.24550846  -3.65776878  -0.00952538
 H   1.52962704  -3.43697971   0.88067548
 N   2.27052700   0.79340506  -1.60126750
 H   1.74766012   1.17096446  -0.81949387
 C   2.87734159   1.70110855  -2.55647252
 H   2.64275212   1.30218331  -3.54882261
 C   4.40237349   1.69034075  -2.37883397
 C   2.36100672   3.11993841  -2.41698496
 H   2.86619957   3.75827327  -3.13756562
 H   2.54694051   3.48487632  -1.40889797
 O   5.03334169   2.68501418  -2.01834020
 O   0.89433574   3.19498863  -2.66209761
 H   0.56082802   4.10453058  -2.79908541
 N   5.00759552   0.51167932  -2.62455779
 H   4.46270572  -0.24671218  -3.02135626
 C   6.43998705   0.37028661  -2.49992156
 H   6.74950510   0.95500187  -1.63028568
 H   6.69530694  -0.67557508  -2.32943162
 C   7.21996746   0.83159022  -3.72797853
 O   7.99341239   0.10011159  -4.32600896
 N   6.97400460   2.11165397  -4.11189882
 H   6.49435535   2.72631090  -3.46646916
 C   7.75519376   2.69804614  -5.17857453
 H   7.87290014   1.95016215  -5.96619051
 C   9.14992254   3.07632111  -4.72556358
 C   7.03179304   3.92575644  -5.73919930
 H   6.01520237   3.61260807  -5.98399366
 H   6.95907855   4.68053601  -4.95430834
 O   10.13652364   3.01065241  -5.41604794
 C   7.70516272   4.49980295  -6.97658015
 H   8.71893222   4.83248692  -6.73470094
 H   7.81738800   3.70008112  -7.71753121
 C   6.92169373   5.65017144  -7.59361342
 H   5.90066169   5.32357704  -7.82496097
 H   7.37986753   5.93534731  -8.54512554
 C   6.84854241   6.88002734  -6.71144968
 H   6.35585200   6.62805636  -5.76112039
 H   7.86415250   7.21011964  -6.46961141
 N   6.17405286   7.96086373  -7.43017296
 H   6.17474062   8.80593772  -6.87267968
 H   5.19961627   7.71960153  -7.56840275
 O   9.17462161   3.54750015  -3.46172028
 H   10.09206161   3.77753861  -3.27559582
 H   0.66836503   2.67326759  -3.46304442
