21
conf-746
 N  -6.03054031  -2.47574405   2.87545559
 H  -5.21465991  -3.07666639   2.89441765
 H  -6.84208654  -3.07832473   2.79115080
 C  -5.97597091  -1.56274294   1.73892285
 H  -5.58008643  -2.04789414   0.82904276
 C  -5.00026475  -0.42800295   2.08723041
 C  -7.37709870  -1.03114657   1.40952176
 H  -7.29257428  -0.07490414   0.88897763
 H  -7.87584322  -1.74734193   0.75187217
 O  -5.36625496   0.63261109   2.59236538
 C  -8.26488027  -0.90252241   2.63802625
 N  -8.06313946   0.22474318   3.35614338
 H  -8.54665017   0.28922095   4.23533296
 H  -7.19641536   0.73227255   3.21963689
 O  -9.08625474  -1.75715293   2.93110448
 N  -3.69711782  -0.66984882   1.83677958
 H  -3.39063324  -1.47850614   1.31495368
 C  -2.70806646   0.37565630   2.02623651
 H  -3.19329077   1.33204917   1.82274014
 C  -1.60801047   0.11755962   1.00412815
 C  -2.18967556   0.42952257   3.48407079
 H  -3.09540372   0.56001008   4.07962121
 O  -1.33821078  -1.02127440   0.63283302
 C  -1.29069168   1.63794307   3.75257137
 H  -0.41436517   1.60957001   3.10159700
 H  -0.90493577   1.53157608   4.77436829
 C  -1.50122656  -0.86151028   3.92440138
 H  -0.55055614  -0.99584566   3.40843258
 H  -1.29162209  -0.82432886   4.99593429
 H  -2.12446174  -1.73397110   3.72630812
 C  -1.99513371   2.98017236   3.64132304
 H  -1.32925536   3.79398882   3.93423418
 H  -2.33266466   3.18716159   2.62034319
 H  -2.87168089   3.01556823   4.29459630
 N  -0.92661968   1.19717117   0.57610013
 H  -1.16274968   2.10972206   0.93024416
 C   0.17684199   1.08278174  -0.36883445
 H  -0.06374340   0.21158995  -0.98951080
 C   1.49148315   0.77917342   0.36244702
 C   0.28467512   2.33939606  -1.21589532
 H   1.09384511   2.23516927  -1.93883405
 H  -0.65200092   2.50542390  -1.75194492
 H   0.50043828   3.20718093  -0.58972098
 O   2.51728151   1.42787272   0.17719082
 N   1.44365889  -0.25629126   1.24761971
 H   0.68309395  -0.92061871   1.12856235
 C   2.68341807  -0.73771331   1.84057617
 H   3.33476389   0.13540333   1.93226947
 C   3.30509108  -1.77149057   0.90048245
 C   2.43107122  -1.29901473   3.24038725
 H   1.72849396  -2.14319307   3.14598129
 O   3.13071876  -2.97817042   1.02552440
 C   3.70253942  -1.74103410   3.93928221
 H   4.19458440  -2.54606515   3.39325687
 H   3.45973691  -2.08257924   4.94614385
 H   4.38293639  -0.88981640   4.01494325
 O   1.87073249  -0.28105234   4.06773942
 H   1.16343919   0.13763996   3.56932692
 N   4.03020779  -1.25241828  -0.11515407
 H   4.10247208  -0.25403049  -0.26555683
 C   4.69899470  -2.11697451  -1.05401131
 H   5.06049347  -2.99942075  -0.51847890
 C   5.83619832  -1.32658672  -1.68913859
 C   3.72179224  -2.57508354  -2.14814792
 H   3.32868778  -1.69499299  -2.66849105
 H   2.91897837  -3.14639724  -1.69156738
 O   5.72498829  -0.14116466  -1.93334753
 O   4.40722693  -3.41761333  -3.13176036
 H   3.79773078  -3.85144585  -3.75265519
 N   6.94336046  -2.04481222  -2.03605741
 H   6.90148659  -3.04336575  -1.91933700
 C   7.74490137  -1.54454495  -3.12631055
 H   7.91257808  -0.48072495  -2.94393194
 H   8.71011951  -2.04685330  -3.13411545
 C   7.06515749  -1.71189293  -4.49224874
 O   5.88455422  -2.07626544  -4.60579877
 N   7.82618212  -1.40295109  -5.54661067
 H   8.79207998  -1.14757498  -5.40055957
 C   7.34982329  -1.46393037  -6.92073456
 H   6.40491271  -2.00734493  -6.93910381
 C   8.32547682  -2.21990853  -7.80178965
 C   7.12706768  -0.07259630  -7.52519465
 H   8.05164177   0.50343687  -7.47345308
 H   6.89394154  -0.21303928  -8.58390922
 O   8.01808426  -2.87774210  -8.75984110
 C   5.99620777   0.69521125  -6.85963695
 H   5.07864750   0.10112750  -6.93308101
 H   6.20333408   0.82588614  -5.79665953
 C   5.78253632   2.05325661  -7.50603031
 H   5.59794202   1.91995508  -8.57867296
 H   6.70792598   2.63465769  -7.41766442
 C   4.64324713   2.86311185  -6.89541883
 H   4.82501485   3.00709834  -5.82739204
 H   4.62814839   3.85964976  -7.34353039
 N   3.30174336   2.30001815  -7.03110958
 H   3.23601504   1.41713331  -6.53896767
 H   3.09663897   2.10114462  -8.00507274
 O   9.61251484  -2.02206561  -7.42489446
 H   10.16377866  -2.51246668  -8.04813306
 H   5.05804557  -2.80957717  -3.69549940
