21
conf-121
 N  -6.53811579   4.80820105   3.31807875
 H  -6.02931151   5.37762760   2.64922949
 H  -6.25388537   5.14873661   4.22894842
 C  -6.11329765   3.42647652   3.15653068
 H  -6.48468438   2.84422902   4.00504593
 C  -4.58115971   3.28534182   3.08354363
 C  -6.72920635   2.82502815   1.88985093
 H  -6.50830667   3.47150128   1.03953530
 H  -6.29635372   1.84404456   1.68002931
 O  -3.85801927   4.20509237   2.72285089
 C  -8.23256282   2.60489865   2.02198369
 N  -8.93702974   2.74924171   0.86715391
 H  -9.93175348   2.60960948   0.90951430
 H  -8.50562814   3.03061780   0.00710969
 O  -8.75854355   2.27162201   3.06881577
 N  -4.10400921   2.05861983   3.42569585
 H  -4.74784502   1.29812873   3.57773485
 C  -2.71816349   1.67589621   3.19521830
 H  -2.24982030   2.45377262   2.59343060
 C  -2.75405680   0.35711577   2.43224665
 C  -1.92839389   1.51974235   4.51252196
 H  -2.50057333   0.81406576   5.12434930
 O  -3.43103202  -0.58536503   2.83024664
 C  -1.85715600   2.84009370   5.29216708
 H  -1.44064762   2.61786702   6.27972743
 H  -2.87229091   3.20715305   5.46904006
 C  -0.53475214   0.92874170   4.28433464
 H   0.01869040   1.50402670   3.53533835
 H   0.03853462   0.94089918   5.21519458
 H  -0.59879598  -0.10588747   3.94020893
 C  -1.02409255   3.93153442   4.63006529
 H  -1.02392217   4.83499745   5.24266725
 H   0.01421525   3.61630128   4.50373283
 H  -1.42265828   4.19561151   3.64749893
 N  -1.97421185   0.27487526   1.33323791
 H  -1.40119391   1.04120564   1.01490820
 C  -1.86086255  -0.94573203   0.56926285
 H  -1.72530711  -1.77621915   1.26891148
 C  -0.61470759  -0.78488201  -0.30335497
 C  -3.11158414  -1.21895486  -0.26578121
 H  -3.00292934  -2.14780440  -0.82802660
 H  -3.97179053  -1.29972788   0.39700567
 H  -3.28180861  -0.39923322  -0.96716926
 O  -0.13038859   0.31406331  -0.53835265
 N  -0.13801181  -1.92797259  -0.84159852
 H  -0.48864613  -2.81694188  -0.52411125
 C   1.07881725  -1.96769712  -1.63876868
 H   1.94910393  -1.83509174  -0.98468271
 C   1.02872761  -0.85255804  -2.66503540
 C   1.17258986  -3.33531197  -2.32478904
 H   0.36740014  -3.39339789  -3.06535511
 O   0.09766275  -0.77823967  -3.46977995
 C   2.51983286  -3.56394071  -2.97817970
 H   2.73098155  -2.80736706  -3.73614315
 H   2.54446208  -4.54576257  -3.45359717
 H   3.29981702  -3.52532727  -2.21457525
 O   0.95807835  -4.31119931  -1.30168469
 H   1.01134027  -5.18051743  -1.70728516
 N   2.03048742   0.03508906  -2.63932881
 H   2.75414512   0.00399959  -1.93901971
 C   2.08228077   1.21157426  -3.48929279
 H   2.00977410   0.90359043  -4.53651703
 C   3.43934079   1.85976753  -3.21192673
 C   0.93665907   2.19822015  -3.22282725
 H   1.15184009   3.17613525  -3.64362480
 H   0.76025815   2.27186213  -2.15391916
 O   4.09778346   1.57822046  -2.23140448
 O  -0.32169031   1.71976387  -3.82984511
 H  -0.33211855   1.91472287  -4.78349021
 N   3.83583319   2.77863875  -4.13320152
 H   3.23988330   2.98338441  -4.91461910
 C   5.05028138   3.53505144  -3.94565564
 H   4.90491366   4.58862176  -4.18060595
 H   5.31998866   3.45395053  -2.88943128
 C   6.26259019   3.07527495  -4.75428119
 O   7.22024427   3.81655889  -4.90910650
 N   6.22300293   1.80489594  -5.21653498
 H   5.38067195   1.26124527  -5.14438616
 C   7.30241369   1.27611329  -6.01599515
 H   7.88915231   2.12149787  -6.38823119
 C   6.72678888   0.51991273  -7.19484306
 C   8.23338897   0.35436719  -5.21768806
 H   7.67310812  -0.51280011  -4.86019133
 H   8.99976938  -0.01748137  -5.89937966
 O   5.58725040   0.14500774  -7.29842251
 C   8.89215290   1.06956558  -4.04660439
 H   9.39733391   1.96749826  -4.41721790
 H   8.12887620   1.41002668  -3.34980563
 C   9.88766474   0.17907547  -3.32016865
 H   10.62948472  -0.18880666  -4.03927983
 H   9.36765199  -0.69857572  -2.92316524
 C   10.61872519   0.88006633  -2.19016893
 H   11.38162186   0.20806690  -1.78744096
 H   11.14315598   1.75800406  -2.59602471
 N   9.70033642   1.21544475  -1.09571282
 H   9.12603343   2.00740402  -1.35939967
 H   10.22798279   1.51777902  -0.28665683
 O   7.66686128   0.28011466  -8.13024758
 H   7.22444666  -0.21832851  -8.82869442
 H  -0.29364191   0.70172377  -3.72274168
