21
conf-474
 N  -7.39997548   4.00559447   3.09174834
 H  -7.84395123   3.96367773   2.17589478
 H  -7.93679780   3.42736643   3.73614124
 H  -7.48276219   4.95699237   3.44612636
 C  -5.99032885   3.58170038   3.06409869
 H  -5.41064200   4.20614978   2.38466769
 H  -5.90319883   2.55098271   2.71882276
 C  -5.38641778   3.68115274   4.46001251
 O  -6.03577451   4.03229103   5.43214855
 N  -4.06879980   3.36890807   4.53591701
 H  -3.61215688   2.91687209   3.74960193
 C  -3.43994766   3.25441775   5.84194547
 H  -3.67226832   4.15849637   6.40923980
 H  -3.82160600   2.40121762   6.40286229
 C  -1.93813588   3.06602402   5.67793771
 O  -1.32307854   2.20620771   6.27803172
 N  -1.35040763   3.95566347   4.81374148
 H  -2.00374402   4.47765575   4.25606601
 C  -0.16236575   3.52285901   4.12133213
 H   0.41504508   2.90292669   4.80990087
 H   0.45051514   4.38252166   3.84349596
 C  -0.52338893   2.72125293   2.86243256
 O  -1.68435077   2.46831678   2.55479644
 N   0.51000776   2.30148744   2.11344605
 H   1.47369150   2.47594521   2.34233558
 C   0.26866751   1.51272124   0.93651753
 H  -0.28188899   0.59998906   1.17899150
 H  -0.35416718   2.05299735   0.21947280
 C   1.62906575   1.17573886   0.32603088
 O   2.67603333   1.53321807   0.83545219
 N   1.58794690   0.45866589  -0.81290131
 H   0.73533093   0.12165683  -1.22459632
 C   2.81473562   0.05809223  -1.44864824
 H   3.42197180  -0.56085624  -0.78009386
 H   3.43306027   0.92733231  -1.68676728
 C   2.44866685  -0.71399392  -2.71043776
 O   1.28900562  -1.01855161  -2.96639562
 N   3.48207583  -1.05066654  -3.50741361
 H   4.42050454  -0.84075186  -3.21205655
 C   3.26806362  -1.71097689  -4.78278179
 H   2.34464171  -1.29736400  -5.19554808
 H   4.08877865  -1.49683562  -5.46244593
 C   3.14610654  -3.22818573  -4.68105473
 O   3.89537060  -3.98451396  -5.29610515
 N   2.16848393  -3.68247791  -3.87400467
 H   1.49236204  -3.03039947  -3.49333409
 C   1.95010241  -5.10320425  -3.72746104
 H   2.93396531  -5.57644817  -3.75150898
 H   1.47490922  -5.30182168  -2.76770460
 C   1.04467893  -5.68825464  -4.81253576
 O  -0.07751470  -6.09482064  -4.56672829
 N   1.58644714  -5.71575321  -6.05773265
 H   2.49066446  -5.29258536  -6.23055963
 C   0.79794644  -6.17421134  -7.16614907
 H   1.12213196  -7.15812784  -7.51729300
 H  -0.23187945  -6.28035736  -6.81955257
 C   0.85846836  -5.23877056  -8.34954832
 O   1.58781269  -4.28829065  -8.45683612
 O  -0.00758088  -5.61773498  -9.30949370
 H   0.09779973  -4.98429190  -10.03146282
