21
conf-123
 N   4.96442670   6.09153012   0.93618697
 H   5.92545447   5.78804111   1.07327592
 H   4.84819066   6.42502647  -0.01945857
 H   4.75368662   6.88272971   1.54932643
 C   3.98198539   5.03976020   1.25317894
 H   4.34924848   4.38030657   2.04195907
 H   3.77682924   4.42472348   0.38083344
 C   2.70011788   5.70540760   1.74172471
 O   2.68956087   6.87095863   2.10708510
 N   1.61087458   4.90979147   1.77585463
 H   1.67104652   3.95700955   1.44162321
 C   0.34071431   5.44503109   2.21714813
 H   0.22351459   5.31152500   3.29275835
 H   0.34923253   6.51453353   2.00423565
 C  -0.77588782   4.75816145   1.44694478
 O  -0.92723625   4.94502910   0.24499067
 N  -1.53847474   3.89185504   2.16038750
 H  -1.21122504   3.62371840   3.07339598
 C  -2.38414534   2.94575611   1.44683440
 H  -2.79460422   3.49091948   0.59671094
 H  -3.18443206   2.61019273   2.10221694
 C  -1.58600956   1.72001360   1.00641143
 O  -1.65290664   0.65334111   1.59275912
 N  -0.76858363   1.92260899  -0.06506657
 H  -0.61397256   2.87000936  -0.39290019
 C   0.21266293   0.93165585  -0.39817719
 H  -0.20603050  -0.04942086  -0.18360693
 H   0.43462844   0.99491289  -1.46468191
 C   1.51516059   1.12653295   0.37219154
 O   1.95852331   2.25141785   0.59737620
 N   2.17529997   0.02612325   0.75730196
 H   1.85762909  -0.90596174   0.55804812
 C   3.44626348   0.13560055   1.41584086
 H   3.36036329   0.69967766   2.34644032
 H   4.16448782   0.67881995   0.79943661
 C   3.94662979  -1.28308070   1.68872860
 O   3.32595530  -2.27104199   1.33970041
 N   5.12545659  -1.36288969   2.33519029
 H   5.64577969  -0.56284262   2.65184761
 C   5.68138718  -2.64938549   2.65504367
 H   4.99962475  -3.23013883   3.28313812
 H   5.83409195  -3.24736607   1.75311550
 C   7.00327011  -2.40790078   3.37911366
 O   7.38521847  -1.28668364   3.66405491
 N   7.72051620  -3.52042058   3.66630569
 H   7.30334801  -4.43181732   3.55959689
 C   8.90360275  -3.41330910   4.49841689
 H   9.47000484  -2.54398647   4.15564778
 H   8.65413241  -3.24643929   5.54593979
 C   9.73450998  -4.68641967   4.42453455
 O   10.25923970  -5.17166542   5.40919425
 N   9.86144100  -5.21019336   3.17001866
 H   9.29465167  -4.78940286   2.45706543
 C   10.20293159  -6.59847576   3.03175780
 H   10.79140655  -6.77211608   2.13142418
 H   10.81192597  -6.87134758   3.89569027
 C   9.02599122  -7.54573909   2.98198676
 O   9.10198433  -8.69676033   2.64794291
 O   7.86981987  -6.96428715   3.38017386
 H   7.19247491  -7.65067793   3.33598815
