21
conf-549
 N  -6.28603927   4.49381807  -4.25910502
 H  -7.28711157   4.52222520  -4.44502720
 H  -5.84597655   5.27261808  -4.74648295
 H  -5.90269237   3.65334960  -4.68818099
 C  -5.96896684   4.53485092  -2.82102055
 H  -6.42645191   3.69343529  -2.30130563
 H  -6.35286166   5.45018579  -2.37035849
 C  -4.45736741   4.47994985  -2.62213414
 O  -3.68383782   4.44219103  -3.56424511
 N  -4.04279816   4.45362934  -1.32670410
 H  -4.69521311   4.66211362  -0.59108257
 C  -2.63504880   4.59002671  -1.01436171
 H  -2.06891704   4.07560681  -1.79258884
 H  -2.29981421   5.62710063  -1.00885095
 C  -2.28190652   4.00600828   0.34349932
 O  -1.24862188   4.32453906   0.91656460
 N  -3.16069867   3.11054504   0.84928129
 H  -3.84424493   2.71695686   0.22596985
 C  -2.84936103   2.41172236   2.07737364
 H  -3.77251971   2.10681051   2.56770800
 H  -2.31775987   3.12732309   2.70805380
 C  -2.01766748   1.15126135   1.83917387
 O  -2.48143851   0.02930460   1.95430353
 N  -0.73666693   1.36372623   1.46984850
 H  -0.35074114   2.28571532   1.32048962
 C   0.10747741   0.24049393   1.18613269
 H   0.16314070  -0.43072720   2.04723086
 H  -0.29742499  -0.36195177   0.36665557
 C   1.49667948   0.75450619   0.82120990
 O   1.75766705   1.94146546   0.74822046
 N   2.41806591  -0.19834711   0.58066279
 H   2.22464065  -1.18367962   0.62418210
 C   3.75567589   0.18728211   0.22091240
 H   4.20438630   0.81617833   0.99375957
 H   3.75698981   0.79104262  -0.69133671
 C   4.56872531  -1.08709871   0.02101381
 O   4.07389345  -2.19119512   0.11833484
 N   5.86894048  -0.88116117  -0.31005048
 H   6.23017920   0.05508582  -0.32983313
 C   6.77601465  -1.99541146  -0.45502620
 H   7.73848180  -1.79254846   0.01306075
 H   6.32424161  -2.85219218   0.04952353
 C   7.07783362  -2.43243478  -1.88893221
 O   8.03943747  -3.13584521  -2.13324814
 N   6.20535100  -2.00319532  -2.83459433
 H   5.42475379  -1.43592806  -2.55845652
 C   6.30849332  -2.47496611  -4.19189848
 H   6.94081581  -3.36557721  -4.17781457
 H   5.33115194  -2.75426552  -4.58708007
 C   6.91590010  -1.50582245  -5.20784429
 O   6.71861363  -1.66128539  -6.39858944
 N   7.72334374  -0.53965497  -4.70190579
 H   7.72290152  -0.39460879  -3.71081024
 C   8.21597463   0.49987262  -5.55745382
 H   9.20839490   0.82338412  -5.24298777
 H   8.30088250   0.09107547  -6.56675561
 C   7.36111962   1.74618439  -5.64806294
 O   7.74101689   2.76855235  -6.15303776
 O   6.12666330   1.58469244  -5.12927492
 H   5.66411779   2.42143508  -5.26276283
