21
conf-197
 N  -1.33894454   9.72983599  -2.54610811
 H  -1.24228133   10.60029307  -2.02646599
 H  -1.28381258   8.94364325  -1.89002087
 H  -0.54745580   9.63414718  -3.18402787
 C  -2.60126279   9.67747703  -3.32465363
 H  -2.60578290   10.44765180  -4.09441221
 H  -3.45409586   9.83236148  -2.66424608
 C  -2.67112099   8.31989504  -4.00266756
 O  -2.02442634   8.07666434  -5.00554180
 N  -3.44485002   7.37860758  -3.36211443
 H  -3.73850113   7.64517392  -2.43707706
 C  -2.98439626   6.00724424  -3.44809644
 H  -3.80245292   5.32111701  -3.23234346
 H  -2.65187053   5.83639292  -4.47313450
 C  -1.82474599   5.75848131  -2.47687590
 O  -1.27071215   6.67029201  -1.86671070
 N  -1.43071816   4.48124900  -2.34028868
 H  -1.85683985   3.71029312  -2.82544794
 C  -0.33282124   4.15928488  -1.47045140
 H  -0.53303902   4.48116536  -0.44518781
 H   0.57690453   4.68376889  -1.77292306
 C  -0.12971847   2.64541851  -1.53194475
 O  -0.82439819   1.92438240  -2.22536739
 N   0.87277582   2.16683132  -0.77069718
 H   1.42622204   2.74111098  -0.15903265
 C   1.12194407   0.75045808  -0.72811264
 H   0.24169560   0.20520236  -0.37204846
 H   1.32534993   0.35916416  -1.72801342
 C   2.30730933   0.51894572   0.19975113
 O   2.79097818   1.42664975   0.86745228
 N   2.77437302  -0.74418417   0.24423466
 H   2.28345943  -1.46856469  -0.25214684
 C   3.93595291  -1.09067595   1.04136427
 H   4.61994047  -0.24015746   0.98271528
 H   4.42405665  -1.97112611   0.63164373
 C   3.61272332  -1.38856445   2.50379573
 O   3.84423753  -2.47056332   3.01227758
 N   3.06490743  -0.35098752   3.18422633
 H   2.96442162   0.54899679   2.73535809
 C   2.76017635  -0.48464226   4.58119493
 H   1.75716910  -0.11977629   4.80888871
 H   2.80122514  -1.55145853   4.81000057
 C   3.70668493   0.24240564   5.54241530
 O   3.35256884   0.53943633   6.66946053
 N   4.94708696   0.48801538   5.07525078
 H   5.24542712   0.24211649   4.14927719
 C   5.92804686   1.12097187   5.91356727
 H   5.59554097   2.11297745   6.23412137
 H   6.09399366   0.54865718   6.83102427
 C   7.22263122   1.22278742   5.10672398
 O   7.31567392   0.79196321   3.97108864
 N   8.25258894   1.81814860   5.74182918
 H   8.16653701   2.17913435   6.67654440
 C   9.51996568   1.96418682   5.06869522
 H   9.94788256   0.99395043   4.80933227
 H   9.40815526   2.50868711   4.12925803
 C   10.47006554   2.70387383   5.97100207
 O   10.19730261   3.08939992   7.07960185
 O   11.67184932   2.88648995   5.39473671
 H   12.21378847   3.36332380   6.03770576
