21
conf-578
 N  -7.65986574   1.65746760   3.09227302
 H  -8.34864912   1.90197577   3.80178210
 H  -8.09818599   1.02901094   2.42114390
 H  -6.92146894   1.11379050   3.53586745
 C  -7.09837231   2.83744804   2.41098477
 H  -6.58843001   3.48691700   3.12327343
 H  -7.88553406   3.42294392   1.93701217
 C  -6.10313753   2.40856101   1.34368059
 O  -5.86477586   1.23905143   1.10452909
 N  -5.48588940   3.43638754   0.70463507
 H  -5.73911132   4.38211374   0.92723128
 C  -4.55537094   3.18807552  -0.37172969
 H  -4.73070240   2.17260421  -0.73350808
 H  -4.70996251   3.87386705  -1.20438018
 C  -3.07622779   3.28765244   0.00152691
 O  -2.22438867   3.39779901  -0.87427841
 N  -2.77276542   3.19378287   1.30526282
 H  -3.51470185   3.06368540   1.96895686
 C  -1.40266255   3.30017591   1.76169933
 H  -1.38041086   3.63465806   2.79654312
 H  -0.91784876   4.04878761   1.12886120
 C  -0.62875708   1.98526732   1.69060472
 O  -0.12425286   1.46938888   2.68584278
 N  -0.52712682   1.43425892   0.46665129
 H  -0.88009667   1.94104730  -0.33819008
 C   0.16659993   0.17850853   0.27973832
 H  -0.06457053  -0.44079680   1.15064126
 H  -0.19590784  -0.31854515  -0.61820608
 C   1.67853505   0.33091297   0.13786091
 O   2.28315728  -0.05471775  -0.86028297
 N   2.30124168   0.92063584   1.17591293
 H   1.77757450   1.11441075   2.02291663
 C   3.73779505   1.08062731   1.16949855
 H   4.02118815   1.89763644   1.83101254
 H   4.02501036   1.32826709   0.14465768
 C   4.47849423  -0.16908201   1.64389347
 O   5.16404751  -0.17006060   2.65161390
 N   4.27616539  -1.27292565   0.87456615
 H   3.82188806  -1.17693770  -0.02619941
 C   5.01891677  -2.47457352   1.12987351
 H   5.60783970  -2.31553303   2.03318504
 H   4.33594144  -3.31199739   1.31416517
 C   5.90785013  -2.83935677  -0.06252302
 O   5.63646301  -2.51094014  -1.20243909
 N   6.99198296  -3.59414595   0.22146898
 H   7.24811283  -3.88680238   1.14918271
 C   7.87508731  -4.00445096  -0.83583779
 H   7.34636169  -4.60077326  -1.58448402
 H   8.27792587  -3.14105495  -1.37323606
 C   9.00314641  -4.81647316  -0.19863494
 O   9.05789433  -5.02203777   1.00032361
 N   9.93092551  -5.28711594  -1.05674373
 H   9.87888080  -5.11752212  -2.04678019
 C   11.03732305  -6.06650942  -0.55685568
 H   11.63389243  -5.49788834   0.15902522
 H   10.68960577  -6.95474502  -0.02604668
 C   11.90476872  -6.48039026  -1.71442619
 O   11.69165912  -6.19026057  -2.86439786
 O   12.95661496  -7.21841906  -1.31615516
 H   13.45453531  -7.43831608  -2.11502472
