21
conf-394
 N  -7.91539558   1.83505792   0.62845963
 H  -8.91300047   2.01389395   0.54237298
 H  -7.56301077   1.42721107  -0.23869710
 H  -7.76451838   1.13925439   1.35675637
 C  -7.13926642   3.05795100   0.90192999
 H  -7.11497197   3.27459741   1.96827570
 H  -7.57387860   3.92539112   0.40411951
 C  -5.71668801   2.87271354   0.39057111
 O  -5.40275937   1.95123211  -0.34040517
 N  -4.83580564   3.81487457   0.81401226
 H  -5.15900128   4.57306397   1.38676192
 C  -3.47601575   3.82343546   0.32746946
 H  -3.44854880   3.21571219  -0.57971129
 H  -3.14429880   4.82950179   0.07181287
 C  -2.43076288   3.25240244   1.28470769
 O  -1.23885629   3.46990454   1.09674239
 N  -2.88370487   2.48532750   2.28905846
 H  -3.86684105   2.29420090   2.35039141
 C  -1.96794220   1.87342243   3.22621050
 H  -2.48167595   1.66934851   4.16342312
 H  -1.16348474   2.59248927   3.40022937
 C  -1.39410327   0.54768393   2.72504330
 O  -1.62085207  -0.50765327   3.29104997
 N  -0.64740517   0.64308076   1.59173214
 H  -0.37617676   1.55643107   1.24756226
 C   0.07361869  -0.49864422   1.10414747
 H  -0.18388385  -1.34927065   1.73519677
 H  -0.23307268  -0.73379121   0.07837463
 C   1.58251552  -0.23673132   1.10191346
 O   2.04937092   0.88279281   1.00347535
 N   2.37041795  -1.33233986   1.16822102
 H   2.02315937  -2.27348385   1.24328747
 C   3.80037761  -1.18547508   1.15512240
 H   4.14076633  -0.54690276   1.97545280
 H   4.14095842  -0.69724662   0.23767224
 C   4.40500458  -2.58445319   1.27516666
 O   3.71634248  -3.58687462   1.33795499
 N   5.75048051  -2.63039523   1.30536567
 H   6.33702138  -1.81618084   1.24309551
 C   6.42092279  -3.89854732   1.40410956
 H   6.09969933  -4.44618577   2.29389494
 H   6.17030762  -4.54309293   0.55508517
 C   7.91919683  -3.61990793   1.44943160
 O   8.37167280  -2.49285638   1.31091257
 N   8.69637526  -4.70956673   1.65637157
 H   8.28429305  -5.61976687   1.54196846
 C   10.14183350  -4.60286418   1.61537899
 H   10.37967205  -3.59391687   1.95833796
 H   10.58943068  -5.33040725   2.28967033
 C   10.71362212  -4.86455712   0.22268957
 O   11.38683535  -5.84748100  -0.03702560
 N   10.39773889  -3.93790107  -0.70938216
 H   9.84275459  -3.12557376  -0.48320216
 C   10.86217218  -4.10599056  -2.06079597
 H   11.95307937  -4.12294783  -2.10728783
 H   10.52509699  -5.05721076  -2.47932062
 C   10.35246321  -2.98271703  -2.92173442
 O   9.66648374  -2.07295510  -2.53214787
 O   10.75835971  -3.11141680  -4.19835500
 H   10.39228500  -2.35635499  -4.67829168
