21
conf-306
 N   1.56747123   10.55838154   3.30166908
 H   1.89347621   11.46412733   2.96881018
 H   0.68585136   10.69363588   3.79347029
 H   2.22196835   10.21818564   4.00400765
 C   1.41086734   9.57325526   2.21887784
 H   2.35765566   9.40704290   1.70434261
 H   0.69057227   9.92109784   1.47797688
 C   0.92369250   8.24511314   2.78952834
 O   0.70632659   8.07743023   3.97967664
 N   0.74859286   7.26357245   1.87910039
 H   0.92255119   7.37343361   0.89415828
 C   0.29267321   5.96430763   2.29476728
 H   0.97191069   5.51929734   3.02755468
 H  -0.68063992   6.02288343   2.79017228
 C   0.20675476   5.09218208   1.04191759
 O   0.49578617   5.51351353  -0.06390495
 N  -0.21133880   3.82836292   1.24587596
 H  -0.43837137   3.45961343   2.15282937
 C  -0.31534278   2.92294679   0.13286546
 H   0.64857420   2.81129463  -0.37248391
 H  -1.00458954   3.30619021  -0.62335375
 C  -0.79569594   1.57907437   0.66998005
 O  -0.97837242   1.38404019   1.85398718
 N  -0.96225062   0.62114066  -0.27690140
 H  -0.81293240   0.85084552  -1.24239515
 C  -1.46830156  -0.68516599   0.07357645
 H  -1.93967361  -0.59628114   1.05470266
 H  -2.21948949  -1.02934668  -0.63636766
 C  -0.42544811  -1.79923940   0.17098200
 O  -0.75424645  -2.96783540   0.09750255
 N   0.85333950  -1.39241369   0.36130441
 H   1.05397500  -0.41101449   0.41631062
 C   1.90416152  -2.35412643   0.57311975
 H   1.42936505  -3.29642901   0.85498820
 H   2.56733223  -2.04460297   1.38098960
 C   2.80068321  -2.62566373  -0.63295105
 O   3.91573524  -3.11592615  -0.48123753
 N   2.29139421  -2.33313967  -1.83992108
 H   1.40893011  -1.85800787  -1.88827697
 C   3.03181384  -2.60339255  -3.05270375
 H   3.55108833  -3.55278496  -2.90026883
 H   2.34632242  -2.69778217  -3.89134492
 C   4.04310219  -1.51442777  -3.41145651
 O   3.99693068  -0.90571935  -4.46531330
 N   5.00265418  -1.30506582  -2.47599824
 H   5.02016317  -1.87085588  -1.63648267
 C   6.02009771  -0.31397116  -2.69797415
 H   5.67716712   0.31384070  -3.52242013
 H   6.15945363   0.31796733  -1.81886139
 C   7.40628589  -0.84548451  -3.06280944
 O   8.40002188  -0.17310274  -2.86061069
 N   7.43233075  -2.05687183  -3.67720553
 H   6.58886705  -2.59921823  -3.68133669
 C   8.68440623  -2.71516452  -3.90960868
 H   8.65034701  -3.30125116  -4.82808264
 H   9.44961647  -1.94572529  -4.03209156
 C   9.15530011  -3.64822058  -2.81478280
 O   10.07561886  -4.40946206  -2.94878738
 O   8.45370869  -3.52140853  -1.66873404
 H   8.85115694  -4.13597492  -1.03882106
