21
conf-771
 N  -2.09911847   6.05027297   3.86471577
 H  -3.06829279   6.36430469   3.88646593
 H  -2.08919135   5.03235323   3.93377623
 H  -1.63465764   6.40634135   4.69942090
 C  -1.39932298   6.49084435   2.64424480
 H  -1.20046119   7.55837652   2.68729629
 H  -2.01151141   6.30124961   1.76076437
 C  -0.07820492   5.74368798   2.47583889
 O   0.12415048   4.66150190   3.01551788
 N   0.80905450   6.32254472   1.63031817
 H   0.63045661   7.24980134   1.28359745
 C   2.15323597   5.79006042   1.49845166
 H   2.80768414   6.55919743   1.08989855
 H   2.55420359   5.50142854   2.47366671
 C   2.29809965   4.54981979   0.61178494
 O   3.35180996   3.93683539   0.60158396
 N   1.22265824   4.20838446  -0.13745753
 H   0.37193495   4.72354162  -0.02431021
 C   1.15849654   2.93043185  -0.78895836
 H   2.13199191   2.69486133  -1.21619569
 H   0.43838444   2.97141803  -1.60724870
 C   0.75791340   1.74254266   0.08869282
 O   0.73753396   0.61129438  -0.38789061
 N   0.41439287   1.99514057   1.36523737
 H   0.47244394   2.93161221   1.74245611
 C   0.11117464   0.91715831   2.28428259
 H  -0.34882609   1.36190236   3.16798953
 H  -0.58376666   0.23281947   1.79661697
 C   1.38133908   0.18152926   2.70548952
 O   2.04239290   0.52251880   3.68259311
 N   1.75435493  -0.82755525   1.88693374
 H   1.36724071  -0.83324439   0.94977680
 C   3.02095709  -1.49361751   2.10181365
 H   2.98926389  -2.49822254   1.68505067
 H   3.15042241  -1.54720897   3.18711139
 C   4.19939861  -0.77079954   1.45898080
 O   4.93505623  -1.31715106   0.63824740
 N   4.37570457   0.50815358   1.84338376
 H   3.84397971   0.87536388   2.62592004
 C   5.41752288   1.31085876   1.23626647
 H   5.51536927   0.97030837   0.20443278
 H   5.12363770   2.35582678   1.24903493
 C   6.73912148   1.16437025   1.97702543
 O   7.18883522   2.02769018   2.70695284
 N   7.34053177  -0.04098935   1.79581340
 H   6.89003205  -0.74803084   1.23001047
 C   8.52302023  -0.37444271   2.53695215
 H   9.23457863  -0.91587721   1.91278334
 H   8.98377466   0.56436767   2.84894319
 C   8.32356936  -1.22172271   3.79545875
 O   9.27543973  -1.75407985   4.33663618
 N   7.05809736  -1.28475840   4.27821687
 H   6.31269647  -0.88450832   3.73587887
 C   6.74703403  -2.12621674   5.39766369
 H   7.65927413  -2.24395248   5.98785928
 H   5.99054014  -1.66354657   6.03042778
 C   6.24391738  -3.51418172   5.06661909
 O   5.56204482  -4.16505336   5.81354267
 O   6.67658227  -3.96515546   3.87218627
 H   6.33344646  -4.86281674   3.77712563
