21
conf-302
 N   0.34802707   10.96857834  -3.44110863
 H   0.47028864   11.93520038  -3.14418313
 H   1.05409813   10.75506820  -4.14344031
 H  -0.54669021   10.88934692  -3.92131111
 C   0.42291340   10.01285109  -2.32378112
 H  -0.34739862   10.22181291  -1.58098863
 H   1.38894917   10.07593874  -1.82224402
 C   0.23137447   8.59057102  -2.84095185
 O   0.04295610   8.33628284  -4.02062856
 N   0.28470650   7.62832289  -1.89527284
 H   0.44219399   7.80941309  -0.91812253
 C   0.11868139   6.24658806  -2.25861643
 H  -0.84426776   6.07639033  -2.74832400
 H   0.87792918   5.92920988  -2.97926516
 C   0.22183374   5.42447536  -0.97374877
 O   0.43282826   5.93790537   0.11055631
 N   0.06401019   4.09577236  -1.12427918
 H  -0.09678963   3.65099531  -2.01160384
 C   0.15355992   3.23027971   0.02059680
 H  -0.56671894   3.51930112   0.79017510
 H   1.13786735   3.30512146   0.49438482
 C  -0.10773901   1.80763003  -0.46235695
 O  -0.23116093   1.54114973  -1.64869886
 N  -0.19052600   0.87829058   0.51897448
 H   0.12907553   1.12390950   1.44025577
 C  -0.33757760  -0.52705324   0.19557357
 H  -0.91987128  -1.02996543   0.96534422
 H  -0.87855272  -0.56200458  -0.75274309
 C   1.00298125  -1.25365016   0.09474594
 O   1.34789644  -2.11063567   0.89032906
 N   1.79182585  -0.86120702  -0.92767814
 H   1.52190061  -0.15502497  -1.59631071
 C   3.08150803  -1.46258176  -1.10323099
 H   2.99656181  -2.54455560  -1.23785267
 H   3.70716898  -1.32128620  -0.21711049
 C   3.74022391  -0.82572249  -2.32433024
 O   3.19164428   0.03727488  -2.98577178
 N   4.97215355  -1.28342124  -2.61901092
 H   5.43343551  -2.01910255  -2.11220266
 C   5.66449741  -0.76943466  -3.76822333
 H   5.07828462  -0.91593414  -4.68004464
 H   5.81722466   0.30951242  -3.68559343
 C   6.99946369  -1.50299399  -3.86440980
 O   7.29627721  -2.40232309  -3.09813919
 N   7.82859978  -1.07459131  -4.84600354
 H   7.48747834  -0.44471192  -5.55537922
 C   9.04209552  -1.81642910  -5.13051867
 H   9.51450183  -2.05536867  -4.17467266
 H   8.83652332  -2.75933756  -5.63657838
 C   9.97016946  -1.00936320  -6.02706589
 O   10.58186395  -1.51874249  -6.94724911
 N   10.07582458   0.31042332  -5.69338993
 H   9.44050906   0.63919215  -4.98986081
 C   10.52196370   1.24232084  -6.69121808
 H   11.07734358   2.06510843  -6.24219528
 H   11.19308961   0.70327997  -7.36260618
 C   9.42508007   1.85449965  -7.53206998
 O   9.57737685   2.80710795  -8.24729063
 O   8.24722799   1.19713972  -7.41386147
 H   7.62656642   1.64607986  -8.00130469
