21
conf-242
 N  -7.14342789  -0.17736868   6.79923915
 H  -6.90458495   0.57557061   7.44459283
 H  -7.78664980   0.21732912   6.11611063
 H  -7.62132777  -0.91552052   7.31112894
 C  -5.93089315  -0.67937174   6.12403929
 H  -5.20740417  -0.99420830   6.88544429
 C  -5.29395092   0.48320105   5.36337138
 C  -6.23056777  -1.89423037   5.23749765
 H  -5.28080482  -2.29708926   4.87539626
 H  -6.67320389  -2.66132036   5.88085338
 O  -5.72287672   1.61592785   5.48190578
 C  -7.14654672  -1.60081273   4.08113065
 C  -8.52992346  -1.65655980   4.22884525
 H  -8.95421175  -1.93511822   5.18908662
 C  -6.62939353  -1.26667306   2.82558981
 H  -5.55353979  -1.23640989   2.69041003
 C  -9.37949652  -1.35324827   3.16598634
 H  -10.45266327  -1.39269043   3.31136161
 C  -7.47122071  -0.96814282   1.75575083
 H  -7.04193078  -0.70918015   0.79554072
 C  -8.85109957  -1.00687604   1.92664103
 H  -9.51011963  -0.77257337   1.09792443
 N  -4.20171234   0.17727912   4.61268399
 H  -4.01433092  -0.77546559   4.34379174
 C  -3.52642879   1.15433758   3.80358704
 H  -4.13770248   2.05709561   3.75119474
 C  -3.27034330   0.54558193   2.43697141
 C  -2.12790576   1.55808467   4.45326794
 H  -1.48862406   1.86050672   3.59181942
 H  -1.69094829   0.58382161   4.76397620
 O  -3.31962354  -0.65957195   2.25254090
 O  -2.19560953   2.42468583   5.38417273
 N  -2.97101900   1.44493037   1.44110729
 H  -2.67876871   2.34838235   1.78595422
 C  -2.16751638   0.98783784   0.31123852
 H  -2.47961316  -0.03212686   0.09100981
 C  -0.68236689   1.04092001   0.68986718
 C  -2.46265965   1.87847183  -0.89385055
 H  -1.89913264   1.53802806  -1.76575714
 H  -2.14713176   2.90604064  -0.66406847
 O  -0.26049726   1.84383944   1.50988336
 O  -3.83037480   1.81925909  -1.24310307
 H  -4.32053368   1.99202289  -0.43336885
 N   0.10848255   0.14826981   0.03890633
 H  -0.24185704  -0.31804016  -0.78487893
 C   1.55040778   0.23154340   0.08455271
 H   1.83673319   1.19526254   0.50720319
 C   2.04856034   0.08810718  -1.36157842
 C   2.16789524  -0.88693380   0.94294330
 H   1.83319754  -1.86528068   0.59739305
 H   3.25781900  -0.84519425   0.85447467
 O   1.37096478  -0.45389693  -2.21807637
 C   1.81602739  -0.76275160   2.40016271
 O   1.23670069  -1.59575184   3.05095206
 O   2.24408629   0.40707802   2.92105954
 N   3.29261310   0.57581382  -1.60062475
 H   3.87445674   0.87946146  -0.83518456
 C   3.97427512   0.30332553  -2.84957548
 H   3.51115120  -0.57483427  -3.30965899
 C   5.42166344  -0.01166406  -2.53975078
 C   3.89694305   1.46884689  -3.84335952
 H   4.47734706   1.19062860  -4.72420033
 H   4.36945640   2.35345861  -3.41146028
 O   5.97221075   0.20401002  -1.48934206
 C   2.46692440   1.78602554  -4.25484128
 H   1.89779068   2.12991588  -3.39543510
 H   1.98476208   0.87351737  -4.61095609
 C   2.40749059   2.83887885  -5.34716128
 H   2.89163957   3.76261360  -5.00613092
 H   2.95580551   2.48709612  -6.22493762
 N   1.00199521   3.08855213  -5.71675906
 H   0.34686151   3.00112649  -4.95455735
 N   1.58477831   4.45854360  -7.51371022
 H   1.35565352   5.29338409  -8.02960003
 H   2.54663233   4.38987660  -7.22076345
 N  -0.65139915   4.30185566  -6.81555213
 H  -1.31861443   3.64201672  -6.43562526
 H  -0.91484489   4.64821509  -7.72690618
 C   0.65485622   3.95764455  -6.67593828
 O   6.04933426  -0.55041612  -3.60270978
 H   1.95882192   0.41462289   3.84318220
 H   6.96186681  -0.69951640  -3.32440229
