21
conf-727
 N  -7.40720983   0.27305304   4.86233404
 H  -7.79633117   1.05148648   5.39636044
 H  -7.34232239   0.56753192   3.88135112
 H  -7.99685590  -0.55540860   4.94979734
 C  -6.02607991  -0.02909079   5.27334389
 H  -5.91715128   0.12059569   6.35035494
 C  -5.10203026   0.90870039   4.50840416
 C  -5.66595049  -1.48122624   4.94029518
 H  -5.78433426  -1.62833332   3.86351730
 H  -4.61096987  -1.63940057   5.17027786
 O  -5.43696173   1.38808071   3.43876119
 C  -6.52767669  -2.45905220   5.69416658
 C  -6.39139333  -2.60056883   7.07431878
 H  -5.63782238  -2.01395526   7.58796948
 C  -7.51559744  -3.19143202   5.04351155
 H  -7.64726348  -3.07520631   3.97211120
 C  -7.20225091  -3.48013083   7.78471064
 H  -7.06970411  -3.58165672   8.85596613
 C  -8.34218200  -4.06161079   5.74903860
 H  -9.10716415  -4.61947711   5.22175146
 C  -8.18427128  -4.21173073   7.12339392
 H  -8.82239919  -4.89275401   7.67485435
 N  -3.87968216   1.14409684   5.08008358
 H  -3.59893007   0.50549963   5.80704181
 C  -2.78684134   1.56710645   4.23805933
 H  -3.19039991   2.16905914   3.42414163
 C  -2.05919854   0.33852173   3.68194613
 C  -1.75317220   2.45057468   5.05821187
 H  -1.43856516   1.76767620   5.88667556
 H  -2.41281023   3.17960636   5.58426208
 O  -2.08657791  -0.74220065   4.24771867
 O  -0.82042030   2.96889470   4.36698188
 N  -1.35665388   0.55224002   2.54614302
 H  -1.16815090   1.49041928   2.22154953
 C  -0.45442551  -0.45720434   2.05442489
 H  -0.09047350  -1.06809073   2.88667117
 C   0.70436815   0.27003372   1.37002425
 C  -1.17579031  -1.40492222   1.08419489
 H  -1.58322103  -0.82999054   0.24196834
 H  -1.99519842  -1.86598799   1.62845601
 O   0.62544600   1.44882083   1.07585764
 O  -0.31420812  -2.43811143   0.64468879
 H   0.13102620  -2.15899027  -0.16867629
 N   1.80516670  -0.49494225   1.12321415
 H   1.67129083  -1.49337129   1.19874844
 C   2.75576656  -0.06655011   0.11435479
 H   2.74724903   1.02048820   0.13029112
 C   2.30648256  -0.55157906  -1.26980345
 C   4.16195344  -0.57051576   0.44646361
 H   4.37278034  -0.31558474   1.48675722
 H   4.22728584  -1.65573122   0.35181149
 O   1.58511761  -1.53533052  -1.42313188
 C   5.23210762   0.08053617  -0.38182587
 O   5.15000083   1.19982029  -0.84342314
 O   6.31117305  -0.69833438  -0.54278627
 N   2.77919931   0.16823856  -2.30526906
 H   3.44999586   0.90661733  -2.13053673
 C   2.57658797  -0.27986667  -3.65489064
 H   2.05732610  -1.24133736  -3.58928381
 C   3.88609279  -0.57634253  -4.36123344
 C   1.72721823   0.68366157  -4.48167103
 H   1.73296887   0.33281787  -5.51478793
 H   2.20065765   1.66923152  -4.47244524
 O   3.97026053  -0.79259286  -5.54224929
 C   0.29807960   0.75554809  -3.96836673
 H   0.27109559   1.16748699  -2.95785338
 H  -0.09969355  -0.26387721  -3.89650951
 C  -0.63480387   1.55908227  -4.85527749
 H  -0.63011631   1.15785325  -5.87522191
 H  -1.65557521   1.46748641  -4.47425258
 N  -0.24594483   2.98382535  -4.85572302
 H   0.74689860   3.14652325  -4.76353502
 N  -2.02811552   3.58266276  -6.24774820
 H  -2.63822240   4.32410579  -6.55210064
 H  -2.47633078   2.71103897  -6.02005897
 N  -0.34417963   5.13125558  -5.72658512
 H   0.28770095   5.43483602  -4.99749934
 H  -0.93891132   5.85970373  -6.09044334
 C  -0.88981166   3.89650941  -5.59829487
 O   4.94690202  -0.62303850  -3.53062246
 H   6.91626472  -0.19932892  -1.10858406
 H   5.70437751  -0.85465449  -4.08331386
