21
conf-304
 N  -8.04649717   2.45573010   3.81826809
 H  -7.61513406   2.64965122   4.72527379
 H  -7.89503336   3.26788832   3.21522277
 H  -9.04855450   2.32941961   3.95459436
 C  -7.43471548   1.27147204   3.16518656
 H  -7.40618406   0.43785825   3.87293845
 C  -6.01990574   1.64457569   2.75094933
 C  -8.22955405   0.87627779   1.92366118
 H  -9.27548705   0.75426947   2.21698254
 H  -8.17441177   1.71691321   1.22984374
 O  -5.80772423   2.57943444   1.97714063
 C  -7.72625442  -0.38476817   1.27467127
 C  -6.61462049  -0.35154888   0.42687869
 H  -6.13463840   0.60382606   0.23535870
 C  -8.33333730  -1.61446459   1.53112733
 H  -9.19552991  -1.65650381   2.18509256
 C  -6.13573175  -1.52158231  -0.15641129
 H  -5.27419740  -1.47607494  -0.81814299
 C  -7.84997036  -2.78481345   0.95116224
 H  -8.34111213  -3.72788395   1.16491596
 C  -6.74896705  -2.74298359   0.10175848
 H  -6.37222946  -3.65087025  -0.35583144
 N  -5.02618198   0.92073199   3.32028904
 H  -5.23111530   0.06907373   3.81164492
 C  -3.64765481   1.23270977   3.02025765
 H  -3.59881549   2.31010314   2.83885687
 C  -3.20998836   0.48015551   1.77114872
 C  -2.71492852   0.86634552   4.20573220
 H  -2.82735869  -0.22229588   4.38152996
 H  -3.14522598   1.37002327   5.08408237
 O  -2.93937706  -0.71396809   1.79519216
 O  -1.49602712   1.24187614   3.99240880
 N  -3.18975104   1.21029619   0.61990978
 H  -3.22816108   2.21190722   0.70708830
 C  -2.42388621   0.68101421  -0.49532244
 H  -2.44591342  -0.40181061  -0.40485580
 C  -0.96444384   1.18507082  -0.34476506
 C  -3.02995029   1.07518638  -1.82488951
 H  -2.87573195   2.14502991  -2.00402764
 H  -4.10444646   0.87498582  -1.79271154
 O  -0.74407591   2.40516474  -0.48242077
 O  -2.50947237   0.29260568  -2.88184733
 H  -1.57589755   0.50274084  -2.99658603
 N  -0.06501353   0.22771808  -0.01938157
 H  -0.42384847  -0.67039247   0.26004680
 C   1.30862582   0.57129776   0.33179295
 H   1.28478336   1.56870689   0.78055635
 C   2.12939253   0.60202941  -0.96173733
 C   1.88746359  -0.44837923   1.32189615
 H   1.99079554  -1.41790576   0.83740401
 H   2.86287571  -0.11152775   1.67498500
 O   2.60881717  -0.40181828  -1.46029420
 C   0.92330900  -0.55479316   2.47174081
 O   0.15035075  -1.47100635   2.62530484
 O   0.95908344   0.52342231   3.25205919
 N   2.24817338   1.83808163  -1.50806056
 H   1.67107019   2.56615009  -1.12064418
 C   2.69185006   2.00371994  -2.87253734
 H   2.82097456   1.00753967  -3.30213759
 C   4.04431597   2.68656513  -2.96057818
 C   1.66937883   2.80314623  -3.68415276
 H   2.05785842   2.92713663  -4.69720013
 H   1.57696494   3.79640596  -3.25180177
 O   4.81597264   2.52642876  -3.87162106
 C   0.31571369   2.10910343  -3.72126527
 H   0.03742573   1.80439853  -2.71432165
 H   0.39772728   1.19874444  -4.32468180
 C  -0.81458366   2.97028386  -4.26150070
 H  -0.55031636   3.40978892  -5.22380505
 H  -1.69934744   2.35217828  -4.42318442
 N  -1.19833560   4.01029576  -3.28221706
 H  -1.25775313   3.64349043  -2.34304800
 N  -0.25372547   5.84081719  -4.41639470
 H  -0.20956948   6.84515340  -4.49090047
 H  -0.35352301   5.35725463  -5.29673439
 N  -0.95299998   6.04159550  -2.19468560
 H  -1.58501149   5.70499427  -1.47852613
 H  -0.92236508   7.04623513  -2.29232837
 C  -0.81840959   5.29353130  -3.31751869
 O   4.27403782   3.54122988  -1.94254576
 H   0.11420887   0.54864230   3.75361351
 H   5.13902946   3.93488015  -2.11092149
