21
conf-112
 N  -8.75207539   2.85936870   4.40098681
 H  -8.87940860   2.52346718   5.35653662
 H  -8.07650487   3.63194593   4.42895319
 H  -9.64050482   3.16598943   4.00367261
 C  -8.12582635   1.83637020   3.54772757
 H  -8.43315940   0.84053087   3.87942240
 C  -6.61456150   2.00645461   3.68379568
 C  -8.53665105   2.00789424   2.08301056
 H  -8.18077458   2.97906835   1.73027188
 H  -8.03391352   1.24308306   1.48678318
 O  -6.13557132   3.06683317   4.05644302
 C  -10.02978428   1.91059322   1.90173193
 C  -10.79034362   3.03912664   1.61296061
 H  -10.29609862   3.99769457   1.48693137
 C  -10.68344162   0.69363760   2.08496640
 H  -10.09473570  -0.18272624   2.33095529
 C  -12.17502499   2.95650054   1.49612955
 H  -12.74821128   3.84936494   1.27566679
 C  -12.06511503   0.59833952   1.95327989
 H  -12.54989485  -0.36169925   2.08960850
 C  -12.81659614   1.73276765   1.66176555
 H  -13.89417607   1.66432613   1.56527222
 N  -5.86635316   0.94415059   3.30566244
 H  -6.29597285   0.10336000   2.95297306
 C  -4.43693570   0.92264158   3.44420406
 H  -4.09316420   1.95446511   3.51358274
 C  -3.86440374   0.16435702   2.25270935
 C  -4.02810291   0.16429077   4.78845506
 H  -2.91879559   0.09049460   4.73614492
 H  -4.36337495  -0.88074789   4.60215902
 O  -4.44509097  -0.80890992   1.79868749
 O  -4.46726712   0.69567868   5.86158478
 N  -2.67597979   0.61077170   1.77792507
 H  -2.12384213   1.28251329   2.28936314
 C  -1.92879321  -0.13602479   0.78665211
 H  -1.97779153  -1.20470427   1.02327467
 C  -0.47562189   0.35963518   0.90197429
 C  -2.51477857   0.05089899  -0.60919597
 H  -2.29170452   1.05630911  -0.98534610
 H  -3.59779023  -0.06420827  -0.53020014
 O  -0.14707266   1.17733409   1.75001394
 O  -1.95652132  -0.96003182  -1.45085171
 H  -2.21734704  -0.77470164  -2.35717413
 N   0.38890596  -0.17561849   0.02329144
 H   0.05873971  -0.76804421  -0.72869327
 C   1.78814062   0.17050355   0.04111109
 H   1.88178431   1.24631923   0.22062853
 C   2.35570298  -0.20748625  -1.33416046
 C   2.58513402  -0.55301353   1.15048981
 H   2.33360243  -1.61557515   1.16187570
 H   3.65301131  -0.44106102   0.94230955
 O   1.79184632  -0.99384107  -2.07297805
 C   2.33973744   0.07369389   2.50303324
 O   2.83890271   1.11109013   2.86651645
 O   1.51357667  -0.66106730   3.26878567
 N   3.54360065   0.37129611  -1.63981470
 H   3.99559617   0.97768895  -0.97596205
 C   4.27401837  -0.01191909  -2.82879441
 H   3.86572669  -0.96527141  -3.17019076
 C   5.74405194  -0.22933046  -2.53290818
 C   4.13979030   1.00227722  -3.97234079
 H   4.76542958   0.64081217  -4.79224412
 H   4.53733922   1.97012546  -3.66307666
 O   6.45786871  -0.97916394  -3.14459187
 C   2.70503079   1.15707829  -4.45685018
 H   2.08714987   1.58075960  -3.66800411
 H   2.29439270   0.17257072  -4.69026479
 C   2.61921817   2.04151869  -5.68788028
 H   3.03691961   3.03193699  -5.46743292
 H   3.22122818   1.60261723  -6.48891421
 N   1.21711965   2.14815078  -6.13293184
 H   0.53963788   2.15806970  -5.38469975
 N   1.79685093   3.42696002  -8.00539020
 H   1.53925162   3.70898036  -8.93700321
 H   2.75513894   3.15113954  -7.87560930
 N  -0.45363882   3.09330775  -7.42694831
 H  -1.09576173   2.41381763  -7.04301160
 H  -0.71559798   3.44915558  -8.33298963
 C   0.86511947   2.87912063  -7.20396281
 O   6.19321298   0.56205970  -1.52906349
 H   1.32446308  -0.11977655   4.04750257
 H   7.13555356   0.37498997  -1.43028760
