21
conf-772
 N  -6.69580420  -2.89120344  -2.52643811
 H  -6.63275787  -3.90298598  -2.40792584
 H  -6.49740943  -2.45626127  -1.61934895
 H  -7.62601955  -2.62688201  -2.85243526
 C  -5.66758618  -2.39290478  -3.45304913
 H  -5.48898115  -3.13275304  -4.23882570
 C  -4.39126048  -2.17458957  -2.64607424
 C  -6.10633199  -1.08386909  -4.11300906
 H  -6.25139302  -0.32778307  -3.33772188
 H  -5.30114130  -0.73108222  -4.76016311
 O  -4.43957595  -2.05102227  -1.42515382
 C  -7.37688954  -1.25791544  -4.90533211
 C  -7.37675112  -2.00903977  -6.07915335
 H  -6.44236228  -2.43692326  -6.42416478
 C  -8.58184466  -0.73245985  -4.44983110
 H  -8.59978041  -0.16311871  -3.52547962
 C  -8.54977144  -2.20633274  -6.80048414
 H  -8.52276976  -2.78494654  -7.71687230
 C  -9.76356180  -0.93957205  -5.15598442
 H  -10.69171912  -0.52533717  -4.78014780
 C  -9.74961152  -1.67435207  -6.33765466
 H  -10.66725921  -1.83186468  -6.89284638
 N  -3.24134128  -2.06359308  -3.35320479
 H  -3.22889542  -2.39571745  -4.30346564
 C  -1.96160556  -2.06266050  -2.67223071
 H  -2.03504319  -2.74969970  -1.82150888
 C  -1.62557400  -0.66056241  -2.19658100
 C  -0.85811135  -2.58682465  -3.66104965
 H   0.09750454  -2.46491035  -3.10149795
 H  -0.80087041  -1.77697356  -4.42997300
 O  -0.80586313   0.05611287  -2.76070254
 O  -1.06614183  -3.76093881  -4.10590357
 N  -2.27913704  -0.22421689  -1.09016380
 H  -2.97998461  -0.81363353  -0.65937408
 C  -1.78869473   0.98571637  -0.44415106
 H  -1.82809503   1.80060040  -1.17007568
 C  -0.31286708   0.83648413  -0.05684605
 C  -2.69708459   1.34050652   0.72756987
 H  -2.30527951   2.21071319   1.25811542
 H  -2.73208406   0.49712176   1.43124952
 O   0.49513406   1.74813961  -0.22329589
 O  -3.99111589   1.69714341   0.27259149
 H  -4.25647443   1.05165491  -0.38718527
 N   0.03277248  -0.36055036   0.47109490
 H  -0.62299411  -1.12177696   0.40441092
 C   1.43393465  -0.74183139   0.54020932
 H   1.95726500   0.14428952   0.89770454
 C   1.95101846  -1.09267901  -0.85490015
 C   1.65039866  -1.87862197   1.53583302
 H   2.71956108  -2.03430733   1.69483411
 H   1.20828262  -1.56868230   2.48577364
 O   1.98744981  -2.24096128  -1.29169717
 C   1.07336801  -3.21617988   1.16948791
 O   1.65461850  -4.26681424   1.23960177
 O  -0.22880155  -3.12995724   0.79349161
 N   2.34636194  -0.03929117  -1.61138612
 H   2.08965137   0.89353375  -1.31903772
 C   2.81729023  -0.28565629  -2.95239135
 H   2.08301243  -0.91778185  -3.47011723
 C   4.11729635  -1.07338191  -2.90609936
 C   3.01318864   1.01340879  -3.73371263
 H   3.54749107   0.77341827  -4.65580739
 H   3.65763100   1.67349318  -3.15578445
 O   4.89248759  -1.12257910  -1.99062065
 C   1.69609018   1.69456797  -4.07401845
 H   1.17662739   2.00994775  -3.17064398
 H   1.04263470   0.97935836  -4.58368542
 C   1.87013714   2.89994532  -4.98346846
 H   2.43845287   2.61622256  -5.87267899
 H   0.89597981   3.25889489  -5.34432867
 N   2.62694418   3.99185261  -4.34418467
 H   3.41605431   4.34719011  -4.86051844
 N   0.83053504   4.62470520  -2.99845137
 H   0.35214909   5.39732323  -2.56237934
 H   0.24429842   4.03896743  -3.57384209
 N   2.82005674   5.88756047  -3.00507839
 H   3.82491429   5.76570299  -3.06587145
 H   2.52907285   6.26166610  -2.11082312
 C   2.08356034   4.83359952  -3.45534756
 O   4.32778532  -1.70545495  -4.08668160
 H  -0.52497087  -4.03060282   0.61706644
 H   5.17479979  -2.15736857  -3.99197670
