21
conf-474
 N  -7.49106014   1.92578336   2.36487280
 H  -7.81179349   2.23500278   3.28391459
 H  -6.85797328   2.64012359   1.99119022
 H  -8.28444466   1.79556239   1.73576516
 C  -6.70238253   0.68617697   2.45351743
 H  -7.11941861   0.03901532   3.22795045
 C  -5.27376856   1.07308195   2.80367838
 C  -6.72172462  -0.06884109   1.12309429
 H  -6.27799673   0.56716182   0.35281742
 H  -6.08900984  -0.95437101   1.21342784
 O  -4.82375571   2.17248592   2.49005341
 C  -8.12067543  -0.46580269   0.72467953
 C  -8.77861154   0.17604164  -0.31965132
 H  -8.26614263   0.95520760  -0.87519419
 C  -8.80541581  -1.44325136   1.44441158
 H  -8.30190704  -1.92884437   2.27265755
 C  -10.08895260  -0.15802703  -0.65101462
 H  -10.58330158   0.35853222  -1.46528566
 C  -10.10877698  -1.79565121   1.10936375
 H  -10.61658782  -2.56715390   1.67704471
 C  -10.75682164  -1.14979944   0.06068510
 H  -11.77489040  -1.41634124  -0.19929780
 N  -4.53105623   0.13588805   3.43802497
 H  -4.89135876  -0.79436524   3.55568655
 C  -3.12050993   0.35253955   3.72272281
 H  -3.01564278   1.38293835   4.07371186
 C  -2.31902310   0.18300488   2.43392895
 C  -2.63224220  -0.62533253   4.82836666
 H  -2.78154927  -1.64596249   4.42757839
 H  -3.33705073  -0.50747853   5.66652656
 O  -1.84102850  -0.89647730   2.07591972
 O  -1.42581241  -0.41874051   5.22168555
 N  -2.20294854   1.29252248   1.67851578
 H  -2.83048063   2.06496449   1.87624869
 C  -1.67118185   1.17111158   0.33207135
 H  -1.90437718   0.15956493  -0.01532974
 C  -0.15644815   1.36183752   0.36332340
 C  -2.33471640   2.19797589  -0.55686331
 H  -1.95559213   2.10465375  -1.57907229
 H  -2.08896637   3.20175528  -0.19613161
 O   0.39867943   2.32939686  -0.16541472
 O  -3.73908031   1.93722602  -0.49125688
 H  -4.19439647   2.72774459  -0.79036492
 N   0.54686010   0.41245226   1.01839896
 H   0.05210862  -0.32762299   1.50507113
 C   1.98064160   0.55947927   1.20706133
 H   2.16894523   1.63526628   1.30282787
 C   2.76441833   0.04458013  -0.01157358
 C   2.47865871  -0.16344169   2.46207060
 H   2.36182977  -1.24393557   2.35215272
 H   3.51914624   0.08716155   2.64441548
 O   3.63163835  -0.81077686   0.07352884
 C   1.63759953   0.28415349   3.63116948
 O   1.78987121   1.31173382   4.23825257
 O   0.68630898  -0.58741516   3.85871950
 N   2.43271325   0.58751666  -1.20997850
 H   1.86365476   1.42371733  -1.21664072
 C   3.27276852   0.26526669  -2.34546344
 H   3.25641779  -0.82011827  -2.49248172
 C   4.70122066   0.68395365  -2.04397538
 C   2.75807030   0.97154787  -3.60134050
 H   2.84291894   2.05092226  -3.45178423
 H   1.69550517   0.73344885  -3.69127476
 O   5.02497145   1.65748376  -1.41593022
 C   3.47844638   0.56346638  -4.87823813
 H   3.43431883  -0.52256799  -4.98565646
 H   4.53314371   0.83786070  -4.82415555
 C   2.85245153   1.20237443  -6.10425770
 H   1.80328757   0.90399396  -6.16968558
 H   2.87808192   2.29523634  -6.01319913
 N   3.56404571   0.76056268  -7.31830474
 H   4.55477893   0.61531435  -7.19564660
 N   2.00734257   1.75590569  -8.74514097
 H   1.87545581   2.26817948  -9.60287902
 H   1.55960180   2.15745144  -7.93645795
 N   4.01684183   0.88951828  -9.59599471
 H   4.67512723   0.13306831  -9.45719684
 H   3.57220720   0.86409909  -10.50234629
 C   3.19419835   1.14813336  -8.54702593
 O   5.59480107  -0.15130433  -2.62620310
 H   0.06324825  -0.23273221   4.54300872
 H   6.46280182   0.20652296  -2.40659693
