21
conf-472
 N  -5.45871371   1.33722624   4.31275377
 H  -6.23659433   1.66138669   3.73607385
 H  -5.40561198   0.32001700   4.20071435
 H  -5.62866167   1.57905165   5.28596627
 C  -4.16759613   1.85640275   3.82185952
 H  -4.31492813   2.86485210   3.43310175
 C  -3.71795084   0.90485711   2.70537797
 C  -3.13075244   1.92428703   4.94946471
 H  -3.58673444   2.49621064   5.76929089
 H  -2.93227362   0.91381524   5.31981881
 O  -4.15700552  -0.23712435   2.65671242
 C  -1.83649914   2.61988753   4.53535662
 H  -1.25594770   2.02849040   3.83303914
 H  -1.22434588   2.84477748   5.40969473
 C  -2.26363760   3.94750003   3.89940604
 O  -2.10035750   4.02865713   2.66506378
 O  -2.74730631   4.77782738   4.66891981
 N  -2.81153242   1.38245628   1.82510700
 H  -2.48342983   2.34894453   1.88335208
 C  -2.24325186   0.51557550   0.82274508
 H  -2.44443850  -0.50997813   1.13870131
 C  -0.72517895   0.72960753   0.75134587
 C  -2.92876907   0.72115636  -0.54351856
 H  -3.99372141   0.52326518  -0.40899059
 H  -2.54031444  -0.02662151  -1.24311634
 O  -0.13938687   1.59245905   1.38075541
 C  -2.70189183   2.09831417  -1.09825035
 C  -1.70062670   2.47495111  -1.95334662
 H  -0.92593520   1.86833749  -2.39832851
 C  -3.43811736   3.29446274  -0.78575322
 C  -2.82298096   4.35919544  -1.46807165
 C  -4.55859072   3.54869165   0.01755502
 H  -5.06970779   2.73958307   0.53600571
 N  -1.76400991   3.83336709  -2.17363510
 H  -1.14054218   4.35595210  -2.75960827
 C  -4.36072570   5.90741193  -0.53137411
 H  -4.73271538   6.91773369  -0.41082316
 C  -3.26673437   5.67869223  -1.35455498
 H  -2.77344567   6.48509248  -1.88451060
 C  -4.99866066   4.85657121   0.14756310
 H  -5.84689878   5.07096352   0.78382459
 N  -0.07856220  -0.11114519  -0.09198269
 H  -0.54876284  -0.89208899  -0.51679216
 C   1.34372380  -0.03195979  -0.31184674
 H   1.67593925   0.95899907  -0.01149779
 C   1.62778639  -0.27341574  -1.78677742
 C   2.13048753  -1.08246628   0.51030980
 H   3.16980057  -1.06584041   0.15844821
 O   1.06327116  -1.16725861  -2.40957441
 C   2.07955347  -0.78116847   1.99188457
 H   2.48099143   0.21360367   2.20890299
 H   2.65798455  -1.52843305   2.53497610
 H   1.05203475  -0.82279711   2.35101436
 O   1.57079700  -2.37709460   0.33951520
 H   1.62195494  -2.60442502  -0.59730280
 N   2.56988517   0.53975473  -2.34401730
 H   3.12957557   1.08248195  -1.70379279
 C   3.28332958   0.12246401  -3.54538124
 H   2.59134479  -0.44012775  -4.17117443
 C   4.44628184  -0.76518289  -3.14932552
 C   3.78881267   1.36145384  -4.29249217
 H   4.49951986   1.88385011  -3.65233732
 H   2.92404778   2.01648908  -4.41986404
 O   5.05122412  -0.68608795  -2.10882089
 C   4.40557391   1.05559065  -5.64706271
 H   5.31050135   0.46692881  -5.52318591
 H   3.71452009   0.45547859  -6.24608952
 C   4.74574147   2.31529855  -6.43328424
 H   5.17759639   2.06023023  -7.40571391
 H   3.83565317   2.88161415  -6.64290634
 N   5.64752999   3.25280118  -5.73632102
 H   5.19248479   3.87029622  -5.07953268
 N   7.49682547   1.85228706  -5.96103096
 H   8.49932976   1.76029767  -5.93895188
 H   7.03177292   1.39984823  -6.73060355
 N   7.59374710   3.72848064  -4.55597658
 H   7.25235053   4.67016932  -4.41692190
 H   8.59869742   3.63822768  -4.53389726
 C   6.91683536   2.94825866  -5.43567104
 O   4.76023656  -1.64985384  -4.11721863
 H   5.52135628  -2.14678575  -3.79361908
