21
conf-197
 N  -4.02261058  -0.16466166   4.13205824
 H  -5.02250983  -0.09086308   3.93303907
 H  -3.72154211  -1.11592752   3.90881683
 H  -3.88063821  -0.01477311   5.13004723
 C  -3.24543915   0.81061129   3.34525299
 H  -3.66057693   1.80904112   3.49494712
 C  -3.27520243   0.49498827   1.82935618
 C  -1.76840220   0.81989314   3.73923110
 H  -1.36462882  -0.18395806   3.56149518
 H  -1.25208008   1.47909233   3.04142353
 O  -3.25408100  -0.67049727   1.36926747
 C  -1.43622253   1.28558901   5.14165706
 H  -1.84203287   0.64174385   5.92485763
 H  -1.80959490   2.29867839   5.31555486
 C   0.09059571   1.35720750   5.33596562
 O   0.51980401   1.14912531   6.47239368
 O   0.76484544   1.68467917   4.33983582
 N  -3.19145304   1.61744905   1.03795189
 H  -3.02866279   2.48340841   1.51980522
 C  -2.53666731   1.50080440  -0.26464373
 H  -2.65932014   0.47415726  -0.60449955
 C  -1.04702530   1.71029811  -0.08036808
 C  -3.17762190   2.39137873  -1.30106897
 H  -2.50730461   2.48446773  -2.16359204
 H  -3.30361046   3.40473773  -0.91837387
 O  -0.47867860   2.77482893  -0.31353326
 C  -4.48416578   1.77841079  -1.72742667
 C  -5.13102860   0.67323051  -1.23195917
 H  -4.84839185   0.03834395  -0.40484342
 C  -5.27615955   2.24164099  -2.83886937
 C  -6.38956410   1.39865107  -2.94938427
 C  -5.09710737   3.28034570  -3.76274641
 H  -4.22588175   3.92983782  -3.70690532
 N  -6.28351645   0.45057620  -1.95450019
 H  -6.96051008  -0.26834377  -1.77653139
 C  -7.16253260   2.60320556  -4.84358328
 H  -7.89037597   2.76191719  -5.63012933
 C  -7.35432129   1.56314724  -3.94210666
 H  -8.21689630   0.91008805  -4.00671353
 C  -6.04544183   3.44920198  -4.75841987
 H  -5.92466520   4.24438573  -5.48302985
 N  -0.39741295   0.62882240   0.42042283
 H  -0.91366778  -0.22604052   0.59389593
 C   1.04794419   0.63778726   0.56377762
 H   1.30621862   1.62524435   0.95900490
 C   1.65545373   0.43533010  -0.82955559
 C   1.50664588  -0.43842088   1.55127317
 H   1.28602290  -1.41119908   1.09988203
 O   1.94903497  -0.67064670  -1.26386783
 C   2.98921762  -0.32378220   1.86425061
 H   3.58935790  -0.43562431   0.96062067
 H   3.27357675  -1.09470061   2.58214439
 H   3.19656320   0.65671589   2.30334592
 O   0.76636519  -0.36394201   2.75156327
 H   0.87693844   0.49681851   3.18228453
 N   1.78862158   1.57147242  -1.55643379
 H   1.43355084   2.44738031  -1.19644860
 C   2.08111719   1.52348300  -2.96688467
 H   2.41225973   0.50840610  -3.19776051
 C   3.19295451   2.50451529  -3.27920125
 C   0.86597563   1.86803302  -3.84586126
 H   1.18928080   1.78985103  -4.88447330
 H   0.58601275   2.91281451  -3.67730348
 O   3.50754639   3.44305732  -2.59825724
 C  -0.34307064   0.97187977  -3.61259775
 H  -0.04531227  -0.07442337  -3.64658474
 H  -0.75739672   1.14608852  -2.61960035
 C  -1.43064551   1.20743331  -4.64709851
 H  -1.73977876   2.25572623  -4.62200200
 H  -1.04884103   1.00625110  -5.65303446
 N  -2.65591208   0.41611417  -4.42214980
 H  -3.35551079   0.81446228  -3.80790193
 N  -1.69823296  -1.58372756  -5.13760650
 H  -1.92583378  -2.43178832  -5.64020203
 H  -0.97644813  -1.02316018  -5.57231856
 N  -3.88062404  -1.55496690  -4.29844515
 H  -4.53340973  -1.06474797  -3.68647102
 H  -3.76571263  -2.53709894  -4.08309452
 C  -2.73679114  -0.89672909  -4.61382109
 O   3.77631922   2.22166925  -4.46353787
 H   4.44531752   2.90426295  -4.59733112
