21
conf-950
 N  -5.86637892   0.43074631   3.49883606
 H  -6.55793302   0.68838837   2.79523841
 H  -5.65788486  -0.55378052   3.35243051
 H  -6.27276369   0.54714191   4.42524592
 C  -4.64611549   1.24895116   3.32789370
 H  -4.93931959   2.30595891   3.31067873
 C  -4.05717239   0.93921731   1.94682632
 C  -3.64957058   1.05564138   4.47051398
 H  -2.84986932   1.79347699   4.36422342
 H  -4.15923534   1.29656668   5.40872880
 O  -4.76180848   0.48702033   1.05771518
 C  -3.03069409  -0.32812168   4.54460548
 H  -2.60961412  -0.61262349   3.57531675
 H  -3.74384118  -1.09758344   4.83857328
 C  -1.83625949  -0.34295580   5.53493513
 O  -1.64500178  -1.42677431   6.11188422
 O  -1.15110724   0.69612680   5.59248302
 N  -2.74820289   1.22762829   1.76449385
 H  -2.13203227   1.39974941   2.54272412
 C  -2.07099557   0.79132728   0.56604517
 H  -2.48347613  -0.17773939   0.26556603
 C  -0.59986191   0.62951698   0.96696890
 C  -2.27494679   1.78431203  -0.58934949
 H  -1.62766056   2.65012413  -0.44818476
 H  -3.30391557   2.14414983  -0.52147310
 O  -0.21669492   0.92625754   2.08573088
 C  -2.04279531   1.17152539  -1.94571260
 C  -2.50251753  -0.04590820  -2.37924390
 H  -3.06038865  -0.80025243  -1.84737573
 C  -1.35287073   1.76861480  -3.05769482
 C  -1.46637587   0.88419342  -4.14505722
 C  -0.66488822   2.97917177  -3.22698086
 H  -0.52748765   3.67295378  -2.40283190
 N  -2.16768731  -0.21677215  -3.70665364
 H  -2.41701380  -1.00626650  -4.27249121
 C  -0.27951875   2.38127101  -5.55733397
 H   0.13788881   2.64870928  -6.52001325
 C  -0.93497373   1.16638610  -5.40649246
 H  -1.03962916   0.46751209  -6.22906810
 C  -0.15651381   3.27418972  -4.48188101
 H   0.35267670   4.21810769  -4.63939818
 N   0.21724908   0.11451967   0.01639828
 H  -0.08456911   0.11680305  -0.95032412
 C   1.65461204   0.15791133   0.18725013
 H   1.89517246   0.87534998   0.97561044
 C   2.26045272   0.60200514  -1.14647957
 C   2.20514747  -1.21218484   0.61990757
 H   3.29915625  -1.15399111   0.62964200
 O   1.59802696   0.66364219  -2.17012438
 C   1.68868026  -1.61233724   1.98673902
 H   1.90629374  -0.85139817   2.74047988
 H   2.13827699  -2.56033599   2.28480817
 H   0.60750020  -1.74706680   1.94319217
 O   1.87631017  -2.20484400  -0.33294561
 H   0.91640594  -2.19219956  -0.40703826
 N   3.57682565   0.90380827  -1.10203285
 H   4.08113400   0.84082494  -0.23303425
 C   4.30560892   1.27796721  -2.29679358
 H   3.74515708   0.90630130  -3.15716052
 C   5.67188791   0.62081344  -2.32949139
 C   4.47873003   2.79611941  -2.45446643
 H   5.08552391   2.96294832  -3.34260800
 H   5.03258989   3.19779806  -1.60504434
 O   6.25222074   0.29909452  -3.33225707
 C   3.14949733   3.52069609  -2.59080180
 H   2.54055723   3.04369295  -3.36524964
 H   2.58610809   3.44308187  -1.65860756
 C   3.32117956   4.99056716  -2.91672014
 H   2.34976376   5.50219110  -2.89208166
 H   3.95903209   5.45147117  -2.15999767
 N   3.95463758   5.13249808  -4.24712660
 H   3.59907072   4.49030697  -4.94083147
 N   4.23066813   7.44499076  -3.99648919
 H   4.75211632   8.25639001  -4.28786549
 H   4.10891198   7.33388514  -3.00356630
 N   4.61344235   6.40516828  -6.06449653
 H   4.96306487   5.56026834  -6.49604154
 H   5.06236636   7.25173464  -6.37908070
 C   4.28000770   6.33317084  -4.75320025
 O   6.20651055   0.48136938  -1.09190739
 H   7.07843269   0.08380896  -1.21126822
