21
conf-962
 N  -5.39418214   2.78816755   3.22593674
 H  -6.24451710   2.59447119   2.69468189
 H  -5.09812532   1.91305901   3.66929489
 H  -5.57810330   3.48757083   3.94099547
 C  -4.27177073   3.19238075   2.35587655
 H  -4.63267158   3.83438746   1.54440923
 C  -3.66407969   1.91482901   1.78878919
 C  -3.21807000   3.94706797   3.16951035
 H  -3.72234074   4.76999644   3.68912345
 H  -2.83265975   3.27875976   3.94564803
 O  -3.65587777   0.88556376   2.44603942
 C  -2.05533416   4.49007284   2.35822222
 H  -2.37367930   5.18403309   1.57692094
 H  -1.48634068   3.68826004   1.88196096
 C  -1.03003239   5.23197385   3.27431334
 O  -0.36334752   6.09592653   2.68090836
 O  -0.96435993   4.83943052   4.44914803
 N  -3.13440404   2.00190311   0.54116875
 H  -2.99591196   2.91054482   0.13465022
 C  -2.26899246   0.95015480   0.05354187
 H  -2.54935471   0.04685528   0.59402160
 C  -0.80297330   1.26023209   0.34743386
 C  -2.46023966   0.72711843  -1.45517605
 H  -3.42812295   0.24862564  -1.61441039
 H  -1.68405604   0.03155289  -1.79258861
 O  -0.37751158   2.39951531   0.44444380
 C  -2.38952548   2.00572209  -2.24377227
 C  -1.26726437   2.72646218  -2.54089686
 H  -0.24655850   2.57103776  -2.23084844
 C  -3.48288119   2.70429805  -2.87210455
 C  -2.94226698   3.81055852  -3.54534010
 C  -4.86465231   2.48278952  -2.90161831
 H  -5.30851429   1.64292007  -2.37708667
 N  -1.58931819   3.79842058  -3.33015334
 H  -0.92783408   4.45108567  -3.72460402
 C  -5.09597019   4.46525838  -4.28906730
 H  -5.74446385   5.13789637  -4.83789592
 C  -3.73080674   4.70766599  -4.26552913
 H  -3.29829612   5.55875627  -4.78084012
 C  -5.65874086   3.36586754  -3.61283156
 H  -6.73016915   3.21039432  -3.65167242
 N   0.00059877   0.15709277   0.45570695
 H  -0.42328118  -0.70716714   0.15667610
 C   1.40463898   0.26510726   0.11339482
 H   1.64526432   1.32836798   0.07648846
 C   1.60230604  -0.36463089  -1.28200054
 C   2.31245422  -0.35920962   1.17710849
 H   1.97362842   0.02267588   2.14650016
 O   0.80192553  -1.17631944  -1.73448518
 C   2.30564684  -1.87300670   1.17114310
 H   1.31025209  -2.26343653   1.39345190
 H   3.00444895  -2.25230747   1.91861505
 H   2.60727393  -2.23889488   0.18680839
 O   3.62395586   0.13460157   0.90257693
 H   4.23109878  -0.24933787   1.54082716
 N   2.72791402   0.03386722  -1.91920212
 H   3.39587424   0.58285069  -1.39708636
 C   3.13773583  -0.53541808  -3.19000000
 H   2.63847982  -1.49905523  -3.32384568
 C   4.62507035  -0.81416309  -3.21443694
 C   2.78003176   0.36752668  -4.38022051
 H   3.30677926  -0.00400996  -5.26251581
 H   3.14978398   1.37100660  -4.18546148
 O   5.14234595  -1.68430374  -3.86436326
 C   1.28452125   0.38179471  -4.64961085
 H   0.97732561  -0.61622863  -4.98349318
 H   0.72821401   0.56030841  -3.72714249
 C   0.85836868   1.39478883  -5.69357375
 H   1.34032391   1.20025659  -6.65196361
 H  -0.22626381   1.32255280  -5.84700357
 N   1.24270113   2.75489430  -5.24348878
 H   1.41369267   2.83101944  -4.25017949
 N   0.05339572   3.79511562  -6.96188729
 H  -0.09270298   4.63493169  -7.49990183
 H   0.10165577   2.94309142  -7.49916612
 N   0.87010564   5.04005643  -5.13568407
 H   1.69301265   5.11666384  -4.54746183
 H   0.72334276   5.86822288  -5.69751292
 C   0.73635362   3.85432145  -5.80488052
 O   5.33156735   0.06354194  -2.46546344
 H   6.26222216  -0.17417959  -2.56272069
