21
conf-306
 N  -0.82347104  -4.01456811   2.89026448
 H   0.18889902  -4.04260223   2.76623978
 H  -1.06059804  -4.28533544   3.85931442
 H  -1.22903182  -4.66119515   2.21649669
 C  -1.32055458  -2.65083307   2.65202014
 H  -0.99616065  -2.02081830   3.48640597
 C  -0.71217439  -2.11897355   1.35165579
 C  -2.85445196  -2.58664158   2.61993513
 H  -3.22729683  -2.96933589   1.66684945
 H  -3.14113425  -1.53409034   2.69350502
 O  -0.06196510  -2.84389222   0.61635745
 C  -3.48634519  -3.35036183   3.78308050
 H  -3.47474731  -4.42842135   3.60511288
 H  -4.51643546  -3.02625511   3.94507251
 C  -2.64529274  -2.99011417   5.00892700
 O  -1.84453862  -3.86048523   5.41171065
 O  -2.80362348  -1.85017657   5.46154059
 N  -1.00804834  -0.81655277   1.07587466
 H  -1.37462676  -0.28763767   1.84761041
 C  -0.26421786  -0.01013988   0.11681791
 H  -0.86916448   0.88959281  -0.04504073
 C   1.08045172   0.42334604   0.72188545
 C  -0.09473525  -0.68301047  -1.25944042
 H   0.54465267  -1.55390657  -1.16981189
 H  -1.08354365  -1.02210738  -1.56250751
 O   1.66477826  -0.20080522   1.58600168
 C   0.46791061   0.27630745  -2.25767286
 C   1.81911879   0.21543272  -2.61856431
 H   2.43040735  -0.58889560  -2.21861169
 C  -0.32073446   1.32517424  -2.74917787
 H  -1.37214429   1.35282450  -2.46518092
 C   2.39107360   1.18272138  -3.40261554
 H   3.44793018   1.17926425  -3.64594199
 C   0.20810159   2.32851784  -3.51453096
 H  -0.38829303   3.15934284  -3.86594523
 O   2.13682258   3.23709023  -4.50864260
 C   1.61935191   2.32352521  -3.85641270
 N   1.57291427   1.61220211   0.24228816
 H   1.22314282   1.92141230  -0.65458583
 C   2.98058329   1.90672304   0.49333167
 H   3.57422384   1.00015315   0.34532808
 C   3.21057963   2.31760978   1.91987225
 C   3.44617963   2.99380141  -0.46980825
 H   3.04021913   2.72301373  -1.44959819
 H   2.98583523   3.94559302  -0.18489876
 O   4.24280194   2.36320849   2.50238055
 C   4.95109744   3.12871415  -0.59337922
 H   5.37088178   2.14396605  -0.82533402
 H   5.37990069   3.43785022   0.35842294
 C   5.32879348   4.09250068  -1.70823390
 H   4.84949693   3.75764901  -2.63863019
 H   4.92835096   5.08556587  -1.48660728
 C   6.82042630   4.19205301  -1.96174365
 H   7.21655886   3.18865974  -2.14022285
 H   7.00934908   4.77413506  -2.86522680
 N   7.55438368   4.80323264  -0.82367200
 H   8.56154423   4.82836361  -0.98439929
 H   7.39671825   4.27655905   0.03467360
 H   7.24143364   5.75853611  -0.65114539
 O   2.00610107   2.70717681   2.58557758
 H   1.30165404   3.10506090   2.01518525
 H   2.16573082   3.32420990   3.33096936
