21
conf-797
 N  -2.01291079   1.20093624   3.64683538
 H  -2.95333310   1.08468125   3.26407664
 H  -2.05880398   1.16162398   4.66301818
 H  -1.66639834   2.12229831   3.36832945
 C  -1.06544462   0.19600906   3.11638069
 H  -1.52393978  -0.79819902   3.14224064
 C  -0.73022001   0.57534031   1.68511336
 C   0.21846338   0.18872805   3.94416032
 H  -0.02646012  -0.05116605   4.98043196
 H   0.62113598   1.20170876   3.93696961
 O  -0.50574145   1.75343103   1.40127230
 C   1.27569042  -0.79060441   3.44106047
 H   1.59431587  -0.53796586   2.42963729
 H   0.85777848  -1.80240692   3.40791703
 C   2.47313408  -0.84611104   4.36900613
 O   2.36934767  -0.79802936   5.56373296
 O   3.67476246  -1.00117769   3.79404487
 N  -0.60568423  -0.42601018   0.79286226
 H  -0.95307521  -1.33979405   1.03276138
 C  -0.25197092  -0.20168958  -0.60807154
 H  -0.77552488   0.70143052  -0.92398792
 C   1.25904248  -0.00270833  -0.70808624
 C  -0.70843923  -1.39442222  -1.45672217
 H  -0.39963055  -1.21121685  -2.48582542
 H  -0.18546666  -2.28496216  -1.11769428
 O   2.01030955  -0.83130970  -1.22982377
 C  -2.17103748  -1.59759641  -1.37640374
 C  -2.70809137  -2.66718454  -0.63815329
 H  -2.02905764  -3.36684538  -0.15890739
 C  -3.04764951  -0.68612066  -1.99552089
 H  -2.61960465   0.14253703  -2.55310795
 C  -4.05549106  -2.84715924  -0.50712756
 H  -4.47986408  -3.66356300   0.06225421
 C  -4.40449141  -0.82008971  -1.91194773
 H  -5.08488202  -0.12578305  -2.38748357
 O  -6.20233325  -2.05670475  -1.03972379
 C  -4.98520554  -1.91865657  -1.14390756
 N   1.74186117   1.11493160  -0.14240564
 H   1.10138175   1.68362507   0.40402100
 C   3.16041243   1.44726755  -0.20031760
 H   3.52523458   1.08835005  -1.16532949
 C   3.94007979   0.66703651   0.85950681
 C   3.38335352   2.95226974  -0.12028006
 H   4.46264448   3.12276256  -0.15085489
 H   2.96782737   3.39002192  -1.03127631
 O   4.57983362   1.16171120   1.75006357
 C   2.80071016   3.64640045   1.09942516
 H   3.17579407   3.15927864   2.00197568
 H   1.71325404   3.54998254   1.11601009
 C   3.15520648   5.12500420   1.10905870
 H   4.24334158   5.24425965   1.11618160
 H   2.79212904   5.58497649   0.18431521
 C   2.56098822   5.88431611   2.28002889
 H   2.68291809   6.95899638   2.13444594
 H   1.48597155   5.68705825   2.32060786
 N   3.16951733   5.49519584   3.57854018
 H   2.72448086   5.96339875   4.36820701
 H   4.16421900   5.71907740   3.60273721
 H   3.08536821   4.49110434   3.73235869
 O   3.85725427  -0.66724329   0.72172379
 H   3.29901901  -0.90599411  -0.05602864
 H   3.63131211  -0.96607713   2.82228992
