21
conf-331
 N   0.46600947  -3.34264002   2.81107039
 H   0.98592995  -2.46500492   2.88726566
 H   0.48530887  -3.82754474   3.70666660
 H   0.93982635  -3.91613359   2.10939222
 C  -0.92503491  -3.09973206   2.35162825
 H  -1.43525929  -2.46499049   3.08627481
 C  -0.77413756  -2.37157519   1.02625342
 C  -1.68219633  -4.40959669   2.20131344
 H  -1.55969653  -4.97173981   3.13506285
 H  -1.20506585  -4.99174722   1.40866703
 O  -0.32342183  -2.95532016   0.04794235
 C  -3.17442829  -4.23858364   1.93903409
 H  -3.38957525  -3.83376988   0.95039024
 H  -3.61263170  -3.57756503   2.69219966
 C  -3.90640531  -5.61337151   2.09717878
 O  -4.73105058  -5.88760926   1.20733784
 O  -3.60302234  -6.24278131   3.12331391
 N  -1.07200103  -1.03895922   1.04906324
 H  -1.29965135  -0.66748353   1.95506684
 C  -0.34992128  -0.07377611   0.22035815
 H  -0.88432615   0.87230691   0.34141164
 C   1.07000901   0.12500791   0.77188493
 C  -0.34982705  -0.41753191  -1.27878837
 H   0.25375491  -1.30086500  -1.45423642
 H  -1.37874249  -0.66122765  -1.53897593
 O   1.62600171  -0.74063521   1.46674448
 C   0.15104930   0.71612744  -2.11516265
 C  -0.58819854   1.89881374  -2.22488056
 H  -1.56711517   1.94254096  -1.75111034
 C   1.39760113   0.63508917  -2.74720881
 H   1.97204103  -0.28292118  -2.66619641
 C  -0.09010421   3.00289704  -2.86840762
 H  -0.64831984   3.92417606  -2.94226161
 C   1.91765411   1.69556289  -3.44639612
 H   2.87845190   1.64561609  -3.94029886
 O   1.70584595   3.95812983  -4.04575535
 C   1.21996035   2.96279477  -3.48951116
 N   1.65784449   1.29814187   0.46748366
 H   1.19219506   1.86894633  -0.22307388
 C   3.11073089   1.50174367   0.57805895
 H   3.60745879   0.60710553   0.18968813
 C   3.50342756   1.61503783   2.02743637
 C   3.52205017   2.68951151  -0.28778090
 H   4.60746587   2.80012490  -0.23320307
 H   3.28864168   2.39887561  -1.32116972
 O   3.70052401   2.57733754   2.69749516
 C   2.84674605   4.01497454   0.01593198
 H   3.08401345   4.32478463   1.03296067
 H   1.76097053   3.90624833  -0.02295554
 C   3.26678982   5.10509692  -0.95723114
 H   4.35928016   5.15741128  -0.99618378
 H   2.91833869   4.86689805  -1.96360209
 C   2.74500907   6.46654742  -0.54736935
 H   1.65319159   6.44459278  -0.51844008
 H   3.08836675   6.68627016   0.46674076
 N   3.19377236   7.54551052  -1.46196775
 H   2.84106752   8.46217250  -1.18463221
 H   2.87845989   7.36969445  -2.41561573
 H   4.21136672   7.60298146  -1.48595407
 O   3.61923473   0.30909766   2.63828565
 H   2.86582059  -0.27940447   2.25109142
 H   3.55703259   0.45979864   3.60140778
