21
conf-746
 N   0.24538799  -4.69360081   2.52152449
 H   1.24848919  -4.57860212   2.66822666
 H  -0.13484271  -5.33524630   3.21346516
 H   0.13839030  -5.11222812   1.59731653
 C  -0.43849741  -3.38654214   2.56006802
 H  -0.10524404  -2.83510952   3.44821780
 C  -0.00711149  -2.57873395   1.33083999
 C  -1.95778520  -3.54679816   2.65909904
 H  -2.42961723  -2.56348109   2.59608833
 H  -2.20057993  -3.95508560   3.64566211
 O   0.68349442  -3.07374279   0.45642428
 C  -2.58349286  -4.45449241   1.60629019
 H  -2.22153790  -5.48040764   1.71670172
 H  -2.38355120  -4.09975594   0.59439732
 C  -4.09870760  -4.40905245   1.89792735
 O  -4.73617596  -3.52481784   1.29700176
 O  -4.51012919  -5.24078825   2.72648921
 N  -0.48191187  -1.30329395   1.29250523
 H  -0.86672921  -0.94665335   2.14876378
 C   0.03383872  -0.29052147   0.37894298
 H  -0.64757437   0.56192424   0.47084385
 C   1.42229963   0.18694458   0.83541407
 C  -0.00362588  -0.74122501  -1.09522879
 H   0.75696129  -1.49440354  -1.27346021
 H  -0.97392050  -1.21406034  -1.24031846
 O   2.07159871  -0.42517844   1.68191852
 C   0.16196542   0.40494567  -2.04459736
 C  -0.78040123   1.43723429  -2.07471880
 H  -1.68111940   1.34235963  -1.47548351
 C   1.29569906   0.51941910  -2.85459072
 H   2.03478690  -0.27639608  -2.85595031
 C  -0.56323276   2.58819524  -2.79466842
 H  -1.28668218   3.39543554  -2.79176018
 C   1.53443689   1.64830863  -3.60325349
 H   2.43257803   1.74695925  -4.20050487
 O   0.86777495   3.83383203  -4.17242061
 C   0.63467314   2.77142930  -3.57682923
 N   1.87606274   1.33216334   0.28410013
 H   1.34392145   1.75120087  -0.46909764
 C   3.28872711   1.72224528   0.39866325
 H   3.88817917   0.81184275   0.31787384
 C   3.54112812   2.27397961   1.77801375
 C   3.68352456   2.64868131  -0.74346022
 H   4.74314620   2.89226056  -0.64383791
 H   3.59009188   2.04440752  -1.65572893
 O   3.57194953   3.39869411   2.16086637
 C   2.87296605   3.92479026  -0.90544327
 H   3.01022563   4.57180613  -0.03796776
 H   1.80905945   3.67987119  -0.94333123
 C   3.28777142   4.64952044  -2.17932584
 H   4.36608529   4.83814315  -2.13969096
 H   3.13398053   3.98961349  -3.04072999
 C   2.61333217   5.99469667  -2.41129580
 H   2.95173218   6.68895142  -1.63552868
 H   2.95028000   6.40795634  -3.36682354
 N   1.13425770   5.93657990  -2.39427399
 H   0.72322564   6.82899069  -2.67653598
 H   0.79790089   5.72376776  -1.45464464
 H   0.80937945   5.20508165  -3.04636723
 O   3.73335913   1.20308036   2.73145576
 H   3.12881399   0.41967104   2.43917451
 H   3.50561065   1.57191330   3.60680586
