21
conf-962
 N  -0.49324506  -3.71660592   3.41960807
 H   0.51589399  -3.58114124   3.48332758
 H  -0.87803692  -3.88280391   4.36476678
 H  -0.65262818  -4.51729886   2.81107954
 C  -1.12934506  -2.51443185   2.85843533
 H  -1.07410011  -1.72096523   3.60946156
 C  -0.36485684  -2.09325178   1.60024030
 C  -2.61943259  -2.73011041   2.55471137
 H  -2.73699127  -3.30546039   1.63321467
 H  -3.06706631  -1.74553081   2.39415554
 O   0.46894517  -2.82598121   1.09093305
 C  -3.34820701  -3.41875890   3.70838319
 H  -3.14087799  -4.49151131   3.72626677
 H  -4.42659855  -3.26468793   3.63192555
 C  -2.83034620  -2.74071764   4.97810301
 O  -3.24099811  -1.59324114   5.18763171
 O  -2.00733183  -3.38739387   5.66021252
 N  -0.73142795  -0.88788100   1.08626013
 H  -1.29233768  -0.30014003   1.67720249
 C   0.00367579  -0.19954924   0.03333612
 H  -0.65470306   0.60648268  -0.31132077
 C   1.26853986   0.45443866   0.59027786
 C   0.29437696  -1.09294418  -1.18863517
 H   1.03623458  -1.84293693  -0.93697447
 H  -0.63601096  -1.61234040  -1.41276162
 O   1.87663473   0.03358186   1.57778000
 C   0.74043605  -0.29271780  -2.36739138
 C  -0.14738040   0.59041960  -2.99707668
 H  -1.17671231   0.62287667  -2.64324459
 C   2.06550903  -0.35265749  -2.81669735
 H   2.76474433  -1.01922132  -2.31807726
 C   0.25589868   1.42721871  -4.00324033
 H  -0.42268628   2.13059514  -4.46640334
 C   2.50742997   0.43263556  -3.85362498
 H   3.53623662   0.40564606  -4.19006894
 O   2.01329576   2.14742585  -5.39104695
 C   1.62821827   1.39952076  -4.48338452
 N   1.70291056   1.54316704  -0.08917621
 H   1.26020471   1.73352641  -0.97807974
 C   3.09439382   1.99426708   0.04449884
 H   3.71042381   1.09689386   0.16085974
 C   3.31103291   2.77460686   1.31583520
 C   3.53034645   2.75396405  -1.20914969
 H   3.13179238   2.20050205  -2.06797770
 H   3.04844957   3.73522565  -1.22465523
 O   4.11705886   3.62409252   1.52575882
 C   5.03674975   2.89999984  -1.38570131
 H   5.45872945   3.52199002  -0.59399382
 H   5.21586259   3.43728751  -2.32313847
 C   5.77080982   1.57227936  -1.43438873
 H   5.69905259   1.05996229  -0.47017535
 H   5.31554541   0.91853665  -2.18596525
 C   7.23591808   1.75045058  -1.76508133
 H   7.32660994   2.24346505  -2.73544637
 H   7.68872390   2.41222791  -1.02288439
 N   7.97364870   0.46225996  -1.79435595
 H   8.96852864   0.58968872  -1.98224946
 H   7.60340421  -0.15597703  -2.51517453
 H   7.88905349  -0.02579809  -0.90365505
 O   2.46661685   2.34961772   2.40131094
 H   2.26459704   1.33979528   2.28443656
 H   2.95232762   2.56069441   3.22382110
