21
conf-892
 N  -1.22042659  -3.47888592   3.20110339
 H  -0.23659834  -3.74682427   3.19423319
 H  -1.61262086  -3.69369657   4.11619708
 H  -1.68969105  -4.05381534   2.50172409
 C  -1.36726027  -2.05244625   2.85697163
 H  -0.81537361  -1.45290991   3.59071851
 C  -0.74196008  -1.81908252   1.47882023
 C  -2.82260286  -1.60641727   2.87393235
 H  -3.41056070  -2.25161437   2.21610843
 H  -2.89066469  -0.59939624   2.45319873
 O  -0.37789800  -2.75341874   0.78359381
 C  -3.43645844  -1.60379253   4.26262510
 H  -2.88935950  -0.96569523   4.95606822
 H  -3.47028987  -2.61111396   4.69395678
 C  -4.90980519  -1.12435706   4.20060259
 O  -5.28876611  -0.45687343   5.18226675
 O  -5.56594696  -1.50567954   3.21474101
 N  -0.64257891  -0.51241213   1.11256787
 H  -0.97473347   0.17967002   1.76090368
 C  -0.09609845  -0.03146795  -0.15006559
 H  -0.42378696   1.01015746  -0.23917904
 C   1.43085717  -0.02831092  -0.12218621
 C  -0.59584130  -0.79455777  -1.38105120
 H  -0.25290295  -1.82231777  -1.34739029
 H  -1.68400729  -0.80746649  -1.33516189
 O   2.11096778  -1.00354558  -0.41281515
 C  -0.11974048  -0.12163207  -2.62726955
 C  -0.70752940   1.07295274  -3.05637244
 H  -1.53732732   1.47766387  -2.48309814
 C   0.97804716  -0.62385497  -3.32896798
 H   1.48795643  -1.50346812  -2.94611628
 C  -0.26830224   1.73925482  -4.17120635
 H  -0.72507286   2.66082615  -4.50699240
 C   1.44757527  -0.00705446  -4.45980521
 H   2.30987364  -0.37794187  -5.00267910
 O   1.30883461   1.83376057  -5.91314343
 C   0.85597158   1.22915147  -4.93296331
 N   1.98971952   1.15562801   0.24719289
 H   1.40769459   1.95981696   0.39630744
 C   3.41729378   1.35826102   0.10188703
 H   3.81837754   0.37344816  -0.14147651
 C   4.05390024   1.70448940   1.42138826
 C   3.75979688   2.34912266  -1.01107489
 H   3.35688970   3.33079373  -0.76368857
 H   4.84290069   2.45858193  -1.04994433
 O   4.91168968   2.49137049   1.65156968
 C   3.23318162   1.89357416  -2.36037327
 H   2.13879350   1.79032357  -2.33661607
 H   3.60978219   0.88643198  -2.56995403
 C   3.61251253   2.81842690  -3.50964511
 H   3.18450460   2.42798525  -4.44068432
 H   3.15951492   3.80209768  -3.34666353
 C   5.10888371   2.99846109  -3.70486568
 H   5.29225797   3.57106738  -4.61534388
 H   5.52602240   3.57416886  -2.87405931
 N   5.80124475   1.68935576  -3.78735781
 H   6.74232925   1.77159046  -4.17178550
 H   5.26428921   1.03799132  -4.35942476
 H   5.88285566   1.27669117  -2.85730476
 O   3.58869586   0.85850553   2.51062322
 H   2.61434776   0.73101184   2.60464536
 H   3.92529879   1.23911448   3.34510237
