21
conf-794
 N  -0.99498752  -3.85252667   3.03962065
 H   0.00189252  -3.83324946   3.25583605
 H  -1.50924302  -4.26667072   3.81359359
 H  -1.09775591  -4.45477602   2.22252147
 C  -1.48609770  -2.49673028   2.72579387
 H  -1.13749378  -1.80194973   3.49961076
 C  -0.86264490  -2.05461201   1.39672527
 C  -3.01608924  -2.44055287   2.71051000
 H  -3.33789218  -1.44576621   2.39372704
 H  -3.37890480  -2.58346876   3.73368714
 O  -0.18674826  -2.81997098   0.73075233
 C  -3.69341219  -3.47644443   1.82060543
 H  -3.48412117  -4.48830182   2.17853138
 H  -3.38194485  -3.38142912   0.77964462
 C  -5.20385621  -3.18645704   1.95558349
 O  -5.67750270  -2.39263885   1.12203232
 O  -5.77490739  -3.75440319   2.90378082
 N  -1.16583523  -0.77979106   1.02485402
 H  -1.56196485  -0.19688466   1.74032106
 C  -0.44749374  -0.05664063  -0.01536242
 H  -1.03883242   0.84191958  -0.21955855
 C   0.92868208   0.39065906   0.49437693
 C  -0.33128589  -0.83258992  -1.34387509
 H   0.31156404  -1.69580511  -1.21405275
 H  -1.32930541  -1.18866820  -1.58952730
 O   1.52574376  -0.16152065   1.40034582
 C   0.19658980   0.05761042  -2.42242724
 C  -0.63362374   1.04754656  -2.96992517
 H  -1.68094155   1.06005618  -2.67056919
 C   1.54791366   0.02137776  -2.78672672
 H   2.19093688  -0.73356912  -2.33990968
 C  -0.15010078   2.01114376  -3.81036591
 H  -0.77847475   2.79385696  -4.21261460
 C   2.07662894   0.95343144  -3.63250524
 H   3.12966794   0.96929780  -3.89104610
 O   1.73465529   2.89660104  -4.90491153
 C   1.25629558   2.02485078  -4.17091124
 N   1.45149944   1.50050002  -0.12016841
 H   1.00688030   1.79499395  -0.97989816
 C   2.90976864   1.65456628  -0.10698502
 H   3.36570020   0.77026895  -0.56947330
 C   3.46307319   1.69685840   1.29417171
 C   3.31626523   2.90260205  -0.88488533
 H   2.73171287   2.90698429  -1.81135245
 H   3.02300414   3.78704953  -0.31805474
 O   4.48631244   1.22320458   1.67476310
 C   4.79667618   2.93487502  -1.22926417
 H   5.06769887   1.96992384  -1.67592103
 H   5.39881311   3.03598592  -0.32438482
 C   5.15296144   4.04275299  -2.21096362
 H   6.20364302   3.95198170  -2.49893837
 H   4.55775520   3.92459743  -3.12702796
 C   4.92395540   5.43528755  -1.66158074
 H   3.86195665   5.58076348  -1.45291334
 H   5.45821842   5.54293011  -0.71435933
 N   5.36914930   6.48690647  -2.61090607
 H   5.21984995   7.42760053  -2.24562853
 H   4.86519514   6.41671464  -3.49372639
 H   6.36197198   6.39134713  -2.81850533
 O   2.68223469   2.50526624   2.18660497
 H   1.71571929   2.30339981   2.19112582
 H   2.99454811   2.33941313   3.09431790
