21
conf-966
 N  -7.00795791  -6.59841841  -4.16017135
 H  -7.66293654  -6.48575785  -3.38596037
 H  -7.29129576  -5.93840046  -4.88652760
 H  -7.08310027  -7.54801218  -4.52498905
 C  -5.63437742  -6.28951224  -3.72401011
 H  -5.34262068  -6.97789329  -2.92202770
 C  -5.61118892  -4.86271987  -3.17532664
 C  -4.62430128  -6.46413457  -4.87492584
 H  -4.69695885  -7.48813650  -5.24818488
 H  -3.61065230  -6.32335379  -4.48993109
 O  -6.56881897  -4.11255879  -3.29668482
 C  -4.87363647  -5.51626492  -6.02411473
 C  -5.34799572  -5.77039186  -7.27394918
 H  -5.59955349  -6.71866619  -7.74310159
 N  -4.70796154  -4.14879174  -5.90586317
 H  -4.38004009  -3.63837327  -5.08386073
 C  -5.11054867  -3.59800774  -7.05394588
 H  -5.15771874  -2.54329617  -7.24128699
 N  -5.50129821  -4.55433194  -7.91561234
 N  -4.42756629  -4.47222617  -2.63632483
 H  -3.76326729  -5.17751129  -2.35605119
 C  -4.26146674  -3.18323435  -1.99315733
 H  -4.96630868  -2.48772842  -2.44125363
 C  -2.83190057  -2.72662407  -2.23185957
 C  -4.50653170  -3.25496964  -0.46895314
 H  -4.10301129  -2.33766559  -0.01617861
 O  -1.88017386  -3.42504464  -1.86324843
 C  -5.97943937  -3.36089387  -0.13973923
 H  -6.52090292  -2.48218136  -0.50309168
 H  -6.10835350  -3.44013098   0.93901805
 H  -6.41838331  -4.24455639  -0.60182843
 O  -3.87202761  -4.39414263   0.09523686
 H  -2.92438965  -4.29460928  -0.05255711
 N  -2.66590935  -1.53727248  -2.83281241
 H  -3.46746791  -0.94960140  -2.98763983
 C  -1.34609866  -0.94178505  -3.01695735
 H  -0.66252038  -1.77786085  -3.19018405
 C  -0.89018085  -0.23760687  -1.72909966
 C  -1.34699460   0.02142716  -4.19243607
 H  -0.44585817   0.63223499  -4.15216502
 H  -2.17955364   0.71435833  -4.04847883
 O  -0.62953673   0.96327909  -1.68486817
 C  -1.43434244  -0.62519584  -5.57333327
 H  -2.29456842  -1.30287380  -5.58872909
 C  -1.65027093   0.45892939  -6.62522880
 H  -0.81994738   1.16931995  -6.60972799
 H  -2.57345635   1.01361907  -6.44434643
 H  -1.70566684   0.03545935  -7.63048468
 C  -0.17848535  -1.42660927  -5.90198206
 H   0.69623906  -0.76805291  -5.93553001
 H  -0.27018881  -1.90659670  -6.87941514
 H   0.00852006  -2.21405849  -5.16489279
 N  -0.82137780  -1.02300969  -0.61963248
 H  -0.81580546  -2.03046253  -0.72260444
 C  -0.24616424  -0.48065937   0.59749142
 H  -0.44479662   0.59198059   0.57673471
 C   1.26408531  -0.72789921   0.59725086
 C  -0.86907702  -1.12750990   1.82538165
 H  -0.49004133  -0.65552147   2.73525545
 H  -0.61561926  -2.18775242   1.85862228
 H  -1.95315929  -1.01804542   1.79407528
 O   1.72607074  -1.84656922   0.43063336
 N   2.02949490   0.37285852   0.80439417
 H   1.61580411   1.22649054   1.14513889
 C   3.46433154   0.29274715   0.94601005
 H   3.72330459  -0.76036170   1.06730973
 C   3.85377083   1.12029526   2.17044498
 C   4.18631901   0.86108016  -0.29278866
 H   3.85705031   1.89623981  -0.41368203
 H   5.26195942   0.88563757  -0.09760505
 O   3.19675700   2.08528525   2.52151278
 C   3.91046584   0.06962848  -1.54048995
 C   4.82514694  -0.86872085  -2.02122935
 H   5.76676325  -1.01191161  -1.50611582
 C   2.71037796   0.23516303  -2.24049783
 H   1.98147076   0.95711236  -1.89284878
 C   4.56088238  -1.62605299  -3.16101332
 H   5.27363481  -2.34988300  -3.53416094
 C   2.42951031  -0.53108860  -3.37289645
 H   1.47421813  -0.41507499  -3.87142345
 O   3.13090697  -2.22827636  -4.94868737
 H   2.24551459  -2.02534648  -5.28398399
 C   3.35777813  -1.46248402  -3.83888266
 N   4.99845877   0.74859471   2.79967447
 H   5.62898722   0.07292682   2.37828304
 C   5.65311910   1.67933213   3.69536390
 H   4.87801574   2.17914763   4.27710130
 C   6.46075736   2.71579803   2.89760276
 C   6.63546904   0.93466705   4.60827607
 H   6.13445903   0.08129934   5.06863330
 H   7.03540202   1.61212670   5.37081826
 O   6.83634536   2.53658765   1.75498727
 C   7.77858865   0.47628215   3.68241706
 O   8.87101283   1.04130059   3.80858414
 O   7.46819897  -0.43245313   2.87860760
 N   6.74550051   3.84906448   3.60715660
 H   6.75966552   3.79856928   4.62029827
 C   7.81887640   4.70491787   3.17865640
 H   8.49176758   4.14158471   2.51236858
 C   8.59938469   5.07876984   4.48788929
 C   7.37371713   5.98650938   2.47625212
 H   8.27367312   6.58232783   2.30462353
 H   6.72007149   6.56876059   3.13257621
 O   9.56809913   5.82652653   4.36608855
 C   6.67006836   5.69924420   1.15727803
 H   7.28848940   5.00720173   0.58051761
 H   5.72694500   5.19087712   1.35102214
 C   6.40577489   6.95423861   0.34515731
 H   5.85457672   7.67581735   0.95623920
 H   7.35791198   7.42477654   0.07939798
 C   5.60704604   6.68844588  -0.91754361
 H   5.45402194   7.61797625  -1.46832805
 H   4.61854367   6.31241689  -0.64157431
 N   6.26939599   5.69211979  -1.80011530
 H   5.83794434   5.64630709  -2.72334825
 H   6.22161145   4.75925844  -1.39319041
 H   7.25547457   5.91841643  -1.91807172
 O   8.14581858   4.53849409   5.52578809
 H  -5.85222384  -4.40706584  -8.86370545
