21
conf-876
 N  -7.44157358  -4.14625908  -6.26340717
 H  -7.97685944  -4.66797396  -5.56585975
 H  -7.80047713  -3.18941833  -6.28512864
 H  -7.59724911  -4.57746823  -7.17349699
 C  -5.99298165  -4.11163015  -5.91890175
 H  -5.64258879  -5.13157572  -5.74139287
 C  -5.83849485  -3.28601464  -4.64927360
 C  -5.20657125  -3.48267498  -7.05589302
 H  -5.55797617  -2.45464879  -7.17220194
 H  -5.45707991  -4.00775609  -7.97983530
 O  -6.03147151  -2.07607643  -4.64537050
 C  -3.70558256  -3.47369399  -6.89953227
 C  -2.88138999  -3.82781862  -5.87894994
 H  -3.09203812  -4.24112090  -4.89248899
 N  -2.89642472  -2.97575930  -7.91050977
 H  -3.23935759  -2.63096158  -8.80890155
 C  -1.62761159  -3.00613427  -7.47687106
 H  -0.75263519  -2.69130030  -8.01876416
 N  -1.58619807  -3.54470909  -6.24044467
 N  -5.57918343  -3.99784090  -3.50972766
 H  -5.14095577  -4.90101506  -3.63788410
 C  -5.09102294  -3.26030452  -2.34271121
 H  -5.61424414  -2.30407652  -2.32373846
 C  -3.58106417  -3.05732098  -2.52570061
 C  -5.41886087  -4.05625924  -1.07892925
 H  -5.02873818  -5.07701594  -1.21389729
 O  -2.78851339  -4.03170722  -2.42599924
 C  -4.81525256  -3.44910588   0.16733479
 H  -3.72398548  -3.45353739   0.07407416
 H  -5.10827532  -4.02933353   1.04086987
 H  -5.16023434  -2.42060010   0.28150395
 O  -6.82999162  -4.08898970  -0.90297901
 H  -7.20145498  -4.38298169  -1.74075769
 N  -3.21129088  -1.80651385  -2.88526041
 H  -3.91765777  -1.12058598  -3.08311637
 C  -1.80507202  -1.45836131  -2.99970496
 H  -1.27881806  -2.39051936  -3.22030369
 C  -1.31320146  -0.95366946  -1.64804056
 C  -1.55260460  -0.47434781  -4.11304773
 H  -2.08944014   0.45031065  -3.88526419
 H  -1.97880898  -0.90176472  -5.02262069
 O  -1.23129772   0.23124268  -1.36204862
 C  -0.07516570  -0.14129228  -4.35630624
 H   0.31516082   0.29676246  -3.42158691
 C   0.76732519  -1.36376549  -4.69821414
 H   0.47088351  -1.75992413  -5.67311829
 H   0.66882457  -2.15969925  -3.95506843
 H   1.82638454  -1.09239395  -4.75128269
 C   0.00779385   0.89296524  -5.47549252
 H  -0.34993018   0.44934660  -6.40675581
 H   1.02950657   1.24215159  -5.63472070
 H  -0.62074312   1.75354852  -5.25248264
 N  -1.02115334  -1.92779541  -0.74941339
 H  -1.03906644  -2.88237684  -1.08079859
 C  -0.16195555  -1.59004508   0.36991827
 H  -0.67522563  -0.80800655   0.93763548
 C   1.16401768  -1.00619397  -0.15056493
 C   0.06252299  -2.81965956   1.23925126
 H   0.68682629  -2.58299358   2.10333582
 H   0.56309689  -3.59739801   0.65791606
 H  -0.89578141  -3.20263857   1.59347951
 O   1.64688254  -1.30235825  -1.24346054
 N   1.74535816  -0.13445423   0.72490854
 H   1.47996168  -0.15841490   1.69794434
 C   3.08822224   0.35943924   0.52389897
 H   3.51041597  -0.14510906  -0.34529460
 C   3.87272474   0.03640017   1.79479181
 C   3.10660555   1.87977184   0.30170658
 H   2.61956749   2.34015394   1.16649817
 H   4.14802376   2.21705353   0.30889999
 O   3.31778239  -0.06757686   2.87249887
 C   2.44654760   2.33634633  -0.97257621
 C   3.21034650   2.81556206  -2.03780798
 H   4.28930868   2.82403641  -1.96223191
 C   1.05695804   2.32973581  -1.11719863
 H   0.43203397   1.95018866  -0.31945338
 C   2.61208373   3.29524240  -3.20118900
 H   3.20582347   3.67409419  -4.02260980
 C   0.44251305   2.81876083  -2.27081685
 H  -0.63937138   2.77006199  -2.36227978
 O   0.69553768   3.82728019  -4.46218290
 H  -0.25958104   3.84299605  -4.38000790
 C   1.22892992   3.31622271  -3.30823910
 N   5.22474154  -0.09080272   1.62887642
 H   5.59807945   0.29286714   0.77453207
 C   6.10405199   0.07059317   2.77825794
 H   5.49614523  -0.11358358   3.66504235
 C   6.58647218   1.53811700   2.80720759
 C   7.26672675  -0.92228525   2.75346306
 H   8.13118674  -0.50878253   2.22679379
 H   6.96960462  -1.83322390   2.23344219
 O   6.38993750   2.32187900   1.89278941
 C   7.76554856  -1.37038454   4.16693209
 O   8.40471499  -2.42945237   4.16610630
 O   7.49461237  -0.61525264   5.12649384
 N   7.26763878   1.86747758   3.92205277
 H   7.40871390   1.14728780   4.63611880
 C   7.76668731   3.19982893   4.11074825
 H   8.13856621   3.57911020   3.15754179
 C   8.92586259   3.12881732   5.15522387
 C   6.72934894   4.13649828   4.70010393
 H   6.38319962   3.69729625   5.64203387
 H   5.87793774   4.20964064   4.02361943
 O   10.04762626   3.46514128   4.75215629
 C   7.35086793   5.50572379   4.95628870
 H   8.27516044   5.37028575   5.52625207
 H   7.62992046   5.94827481   3.99294012
 C   6.40084619   6.43942126   5.68579890
 H   5.44554321   6.46884117   5.15369464
 H   6.19606164   6.03277506   6.68169895
 C   6.91626960   7.86023230   5.82320428
 H   6.18609605   8.47115131   6.35657805
 H   7.03533606   8.29780594   4.82894529
 N   8.22126327   7.91420326   6.53229365
 H   8.44427096   8.85285841   6.86323876
 H   8.98055035   7.61473923   5.92254985
 H   8.21509284   7.28395378   7.33223357
 O   8.58236269   2.74042144   6.28756032
 H  -0.76600399  -3.66191469  -5.64604451
