21
conf-399
 N  -4.11743972   0.39016700  -8.24067484
 H  -4.72646046   1.20510736  -8.14977797
 H  -3.19696683   0.66474326  -7.88926890
 H  -4.03799795   0.14429848  -9.22600310
 C  -4.61087741  -0.74206718  -7.43674417
 H  -5.66699594  -0.91541712  -7.66221215
 C  -4.47652757  -0.38286382  -5.95498231
 C  -3.82816981  -2.01882146  -7.77462653
 H  -2.76926213  -1.83925997  -7.57290226
 H  -3.94468144  -2.21704500  -8.84138322
 O  -3.67496833   0.45577925  -5.56389822
 C  -4.29241737  -3.20252520  -6.97669698
 C  -3.75839432  -3.78269786  -5.86929583
 H  -2.83841426  -3.55012263  -5.34489576
 N  -5.54184262  -3.76674372  -7.14917428
 H  -6.21218449  -3.53349454  -7.88697340
 C  -5.73806732  -4.64325382  -6.15646761
 H  -6.67530131  -5.14195222  -5.97154098
 N  -4.66251836  -4.68001501  -5.35301851
 N  -5.31671426  -1.03980855  -5.11404394
 H  -5.81504225  -1.86291210  -5.43168794
 C  -5.11455419  -0.96617701  -3.68502924
 H  -4.80640183   0.05540801  -3.45646829
 C  -3.95217996  -1.91564669  -3.26340211
 C  -6.41924774  -1.28079522  -2.93854531
 H  -6.15505294  -1.49687552  -1.89787763
 O  -4.14029718  -3.13565589  -3.15361882
 C  -7.40570990  -0.13502308  -3.02301449
 H  -7.00275057   0.76777595  -2.55627964
 H  -8.33328257  -0.40970873  -2.51884647
 H  -7.63478797   0.08661460  -4.06696549
 O  -7.06010398  -2.41576074  -3.51232102
 H  -6.55498047  -3.19511326  -3.26007014
 N  -2.73720534  -1.29130281  -3.16661736
 H  -2.70726801  -0.29303784  -3.31369717
 C  -1.65249572  -1.79927578  -2.34103594
 H  -1.98886535  -2.74763887  -1.91088103
 C  -1.40437271  -0.78991700  -1.22777144
 C  -0.37681976  -2.00803177  -3.14744283
 H   0.41692732  -2.31435447  -2.46355603
 H  -0.07479925  -1.04149957  -3.55925986
 O  -1.67645803   0.38815474  -1.35194856
 C  -0.49699362  -3.03006636  -4.27776885
 H  -1.22251643  -2.63536497  -5.00551070
 C   0.84473058  -3.17582212  -4.98494904
 H   1.60078199  -3.54092200  -4.28582512
 H   1.18734787  -2.21793599  -5.38359650
 H   0.78449929  -3.88219526  -5.81618394
 C  -0.99027410  -4.37599851  -3.76205297
 H  -0.29021532  -4.76928698  -3.01787182
 H  -1.04392269  -5.10313442  -4.57828243
 H  -1.97585613  -4.31124928  -3.30329235
 N  -0.82610577  -1.29972497  -0.09412149
 H  -0.37741304  -2.19466094  -0.19042288
 C  -0.11307881  -0.39673155   0.79666640
 H  -0.67451640   0.53636323   0.82079325
 C   1.28387866  -0.12765039   0.22771413
 C  -0.00807450  -0.99899358   2.19214213
 H   0.53763712  -0.32683776   2.86030050
 H   0.52632656  -1.95148740   2.14886421
 H  -1.00406522  -1.17424604   2.59979492
 O   1.86372074  -0.91919373  -0.49332199
 N   1.84078292   1.06109010   0.60238127
 H   1.45432498   1.49626162   1.41990450
 C   3.27047064   1.24901939   0.42985101
 H   3.50934605   0.90138874  -0.57489519
 C   4.01003347   0.41285762   1.47169637
 C   3.64451746   2.72122511   0.60500214
 H   3.35716879   3.02039972   1.61405726
 H   4.73303396   2.79927249   0.54953477
 O   3.64713136   0.44381475   2.64501080
 C   3.00159509   3.61436564  -0.42164300
 C   3.37246239   3.53603302  -1.76333570
 H   4.14511187   2.83215058  -2.05372362
 C   2.00125589   4.52205206  -0.07332636
 H   1.69315647   4.61172480   0.96162161
 C   2.77884071   4.33931507  -2.73143554
 H   3.07555018   4.27562074  -3.77081878
 C   1.38745647   5.32816320  -1.03105578
 H   0.61227024   6.02642727  -0.73459851
 O   1.22200528   5.99486384  -3.35345869
 H   0.54957874   6.56569372  -2.97346553
 C   1.77846544   5.23443818  -2.36338041
 N   5.06595145  -0.29010530   1.01884871
 H   5.18235975  -0.44346112   0.01708926
 C   5.77603736  -1.25321006   1.83596216
 H   5.10122776  -2.07232816   2.11323216
 C   6.30209261  -0.59922878   3.11091104
 C   6.95831401  -1.78607487   1.02709042
 H   7.52330208  -2.53530784   1.58197131
 H   7.60272492  -0.93759229   0.79070695
 O   6.89921836   0.46344869   3.10143225
 C   6.44587712  -2.42433235  -0.28308185
 O   6.67742327  -3.63008791  -0.43963025
 O   5.87336564  -1.65104057  -1.08675615
 N   6.07488195  -1.30656299   4.24827245
 H   5.94193629  -2.31217855   4.25511930
 C   6.61767861  -0.87438255   5.50235156
 H   7.50696307  -0.25460287   5.32877970
 C   7.00302163  -2.17613257   6.27471057
 C   5.62182835  -0.08942917   6.35966113
 H   6.11752233   0.14972982   7.30334523
 H   4.75948036  -0.72184363   6.59452169
 O   7.60820737  -2.03116243   7.33781021
 C   5.15368423   1.17157196   5.65140526
 H   6.02516059   1.77532823   5.37885510
 H   4.66408080   0.89989426   4.72408764
 C   4.19740118   2.00553329   6.48243376
 H   3.34756596   1.39089633   6.79223189
 H   4.69097743   2.35798413   7.39208040
 C   3.68076636   3.19249705   5.69961688
 H   3.18557476   2.83265142   4.79213162
 H   4.52683407   3.80650814   5.38333260
 N   2.72485178   4.01805948   6.47866945
 H   2.37560059   4.81524254   5.94601902
 H   3.16293297   4.38234277   7.32422465
 H   1.91864736   3.46570185   6.76921266
 O   6.64082150  -3.23522766   5.71374421
 H  -4.55796119  -5.14059482  -4.44744910
