21
conf-535
 N  -8.30342376  -2.06063220  -6.75139577
 H  -9.07751705  -1.77175773  -6.15285737
 H  -7.98860787  -1.23320589  -7.26864085
 H  -8.62875369  -2.76243810  -7.41263008
 C  -7.15049015  -2.52051965  -5.95639296
 H  -7.50093298  -3.09281361  -5.09255002
 C  -6.41857515  -1.27643801  -5.43724322
 C  -6.21397485  -3.42785699  -6.78253909
 H  -6.66764065  -4.41906215  -6.86138456
 H  -5.25953911  -3.53755254  -6.26354610
 O  -6.54165044  -0.18628228  -5.97831242
 C  -5.96690340  -2.92061016  -8.18615135
 C  -5.10570295  -1.97568338  -8.64485303
 H  -4.37441282  -1.38532644  -8.09776260
 N  -6.72950735  -3.34046340  -9.27153826
 H  -7.45538660  -4.06378444  -9.26046477
 C  -6.32144567  -2.65697681  -10.35088945
 H  -6.72558082  -2.76571438  -11.33408265
 N  -5.33808204  -1.80866370  -9.99725190
 N  -5.65017397  -1.47079098  -4.33052139
 H  -5.44179738  -2.40776035  -4.01691227
 C  -4.72667404  -0.46685337  -3.83451331
 H  -4.56124703   0.28146690  -4.61151237
 C  -3.44097343  -1.21170586  -3.46511578
 C  -5.30988588   0.26581068  -2.59927812
 H  -5.49834372  -0.49505183  -1.82905292
 O  -3.48345362  -2.36983969  -3.07311360
 C  -4.40621664   1.35802149  -2.06311216
 H  -3.43736198   0.98969410  -1.73286358
 H  -4.90436968   1.84517968  -1.22389316
 H  -4.25951455   2.10843578  -2.84677257
 O  -6.52205777   0.92508947  -2.94428374
 H  -7.16883259   0.25413202  -3.19035397
 N  -2.28597584  -0.50465640  -3.57553986
 H  -2.34997637   0.48947301  -3.73188211
 C  -1.05878451  -0.97287883  -2.95509542
 H  -1.25735624  -1.98409685  -2.60457390
 C  -0.72995096  -0.09831025  -1.74789892
 C   0.11513287  -0.97860657  -3.92966363
 H   0.98675902  -1.38951146  -3.41227211
 H   0.36642973   0.05165098  -4.18803856
 O  -0.82318370   1.13981502  -1.78558746
 C  -0.11385967  -1.79713159  -5.20398628
 H  -0.90608153  -1.31776203  -5.78559139
 C   1.15801114  -1.79385927  -6.04517643
 H   1.97311139  -2.27349285  -5.49759884
 H   1.46740807  -0.77483745  -6.29025687
 H   1.01477831  -2.33678489  -6.98259967
 C  -0.54759941  -3.22208436  -4.87979016
 H   0.22268806  -3.72220920  -4.28202073
 H  -0.68606950  -3.79988132  -5.79750245
 H  -1.48064949  -3.25179896  -4.32241484
 N  -0.30267450  -0.77907504  -0.65402503
 H  -0.16239449  -1.77235197  -0.71339547
 C   0.22757949  -0.08947774   0.50834189
 H  -0.23454713   0.90147201   0.49015774
 C   1.73788068   0.07259439   0.34196082
 C  -0.10929403  -0.82708771   1.78839366
 H   0.29130632  -0.29956818   2.66250579
 H   0.33622246  -1.82389900   1.76896319
 H  -1.19194087  -0.91838806   1.87996439
 O   2.55307639  -0.67305352   0.88645649
 N   2.13326594   1.08564276  -0.46915492
 H   1.43032140   1.70108114  -0.84337429
 C   3.50396933   1.58371528  -0.33782219
 H   4.12960011   0.69514046  -0.24213141
 C   3.58819588   2.40750941   0.94967330
 C   3.92877517   2.39199912  -1.56299366
 H   3.64557213   1.81528456  -2.44526932
 H   3.36641507   3.32628047  -1.57354087
 O   3.37362701   3.62257026   0.97334147
 C   5.41705724   2.64861355  -1.57524367
 C   5.98034007   3.72545362  -0.88067605
 H   5.32956524   4.42400895  -0.37071816
 C   6.28408998   1.78080439  -2.24390878
 H   5.87669276   0.94758888  -2.80230549
 C   7.35961350   3.90834282  -0.84033799
 H   7.79337199   4.73858728  -0.30333280
 C   7.66586163   1.96598957  -2.21837764
 H   8.31267135   1.27599503  -2.74944005
 O   9.54908457   3.27258350  -1.43821446
 H   10.01125629   2.59748911  -1.94187426
 C   8.20479617   3.03449646  -1.50882167
 N   3.84595684   1.69387245   2.06227200
 H   3.83003147   0.68422620   1.99087252
 C   3.75416154   2.30131995   3.38126134
 H   2.98184535   3.07797312   3.32987801
 C   5.11157983   2.94266062   3.72612522
 C   3.37290581   1.27335149   4.43875744
 H   3.30572307   1.77516950   5.40410932
 H   4.11943633   0.48291051   4.51068795
 O   5.84078285   2.52996924   4.61203103
 C   1.98512511   0.67729224   4.10971377
 O   1.05601694   1.48588500   3.98603113
 O   1.94112162  -0.56703494   4.05013294
 N   5.47021543   3.97933941   2.93338859
 H   4.83787201   4.29030781   2.20793656
 C   6.74536817   4.61169464   3.12765523
 H   7.54307741   3.92876245   2.81132001
 C   6.96418462   4.98956213   4.61834384
 C   6.81870807   5.94068822   2.39404204
 H   5.89638181   6.48964490   2.61110991
 H   6.84795228   5.76196394   1.31044989
 O   8.07679287   4.67331464   5.08889934
 C   8.01119729   6.77446279   2.85082982
 H   8.02259064   7.71160637   2.28696111
 H   7.88098378   7.04288774   3.90491025
 C   9.34208447   6.06456835   2.65531688
 H   9.36115232   5.14349873   3.24439972
 H   9.46138521   5.78209213   1.60391356
 C   10.50509218   6.93643265   3.07887364
 H   10.39244672   7.18022525   4.13914435
 H   10.47328975   7.87630484   2.52405844
 N   11.81955859   6.27979890   2.86530208
 H   12.59600060   6.84382122   3.21226357
 H   11.98743482   6.10429539   1.87508530
 H   11.85469126   5.37999712   3.34224279
 O   6.06252753   5.63577148   5.16508334
 H  -4.83525835  -1.16188642  -10.60994796
