21
conf-879
 N  -5.08664267  -2.44401541  -7.79527123
 H  -6.06093715  -2.14802216  -7.87701789
 H  -4.50218267  -1.60913398  -7.88394181
 H  -4.87326136  -3.08325493  -8.55850393
 C  -4.80694005  -3.04634914  -6.47739096
 H  -5.57256047  -3.79127817  -6.23425477
 C  -4.85065709  -1.92204077  -5.44326959
 C  -3.43295001  -3.74052904  -6.50122014
 H  -2.67218252  -2.99022473  -6.73221158
 H  -3.44199024  -4.46640012  -7.31542861
 O  -4.52473280  -0.77744068  -5.74473546
 C  -3.09357131  -4.44681301  -5.22020389
 C  -3.29640186  -5.73503861  -4.82727790
 H  -3.66892810  -6.58871538  -5.38370029
 N  -2.56243295  -3.77406214  -4.14181930
 H  -2.39292330  -2.76463683  -4.06864268
 C  -2.55527854  -4.60028434  -3.08650172
 H  -2.35620762  -4.22394655  -2.10041494
 N  -2.93141077  -5.82895035  -3.49458685
 N  -5.27110413  -2.25738949  -4.20302376
 H  -5.37147476  -3.22276528  -3.94785325
 C  -5.29752590  -1.29467202  -3.11311505
 H  -5.73236160  -0.37071723  -3.49260448
 C  -3.84276106  -1.02474344  -2.65693986
 C  -6.17093685  -1.85481713  -1.98568871
 H  -5.77309287  -2.84047329  -1.72215602
 O  -3.22395733  -1.83470095  -1.91144882
 C  -6.19862967  -0.94852125  -0.76956697
 H  -5.18387308  -0.82980014  -0.38102465
 H  -6.83079192  -1.38572367   0.00350348
 H  -6.58846122   0.03317231  -1.04616645
 O  -7.49406328  -2.09340976  -2.45575650
 H  -7.89117357  -1.23995678  -2.64538815
 N  -3.29315217   0.08510800  -3.22055721
 H  -3.74427868   0.44654238  -4.04847995
 C  -1.89191094   0.37399298  -3.00375059
 H  -1.43013133  -0.54917034  -2.64785217
 C  -1.76056299   1.38913239  -1.87056163
 C  -1.19057831   0.80787379  -4.27684191
 H  -1.61549413   1.75857680  -4.60779975
 H  -1.41079358   0.05579063  -5.04145364
 O  -1.48818382   2.56656595  -2.04130585
 C   0.33068421   0.95865802  -4.13976851
 H   0.51130311   1.66350368  -3.31850102
 C   1.01736148  -0.36013927  -3.79654235
 H   0.99313951  -1.04322036  -4.64998964
 H   0.54773782  -0.85758097  -2.94907806
 H   2.06334346  -0.17898921  -3.52846937
 C   0.90556980   1.55749035  -5.41936151
 H   0.69684687   0.90548627  -6.27109430
 H   1.98898221   1.67672353  -5.34481518
 H   0.47149599   2.53811994  -5.62331225
 N  -1.99800890   0.88033563  -0.62021031
 H  -2.08784046  -0.12351806  -0.55936450
 C  -1.28188917   1.49935788   0.48649339
 H  -1.39115702   2.57875758   0.36611013
 C   0.21321887   1.14261617   0.35938920
 C  -1.85089044   1.04712662   1.82163949
 H  -1.32318220   1.52072665   2.65192933
 H  -1.75319984  -0.03688367   1.92300693
 H  -2.90729540   1.31144296   1.88202182
 O   0.60835319   0.23526841  -0.36825385
 N   1.05830620   1.88494585   1.10561276
 H   0.74976301   2.65875835   1.67463178
 C   2.48810331   1.64768706   1.06274963
 H   2.66288510   0.56927454   1.08791712
 C   3.05620533   2.32695121   2.31109457
 C   3.10460851   2.20883849  -0.23732181
 H   2.47474101   1.86628118  -1.06245552
 H   3.06013397   3.29901359  -0.20254472
 O   2.52084521   3.32031442   2.77696254
 C   4.51297386   1.72573058  -0.43593023
 C   5.58684255   2.42663796   0.10817175
 H   5.40539937   3.37538562   0.60283055
 C   4.77181232   0.51732302  -1.08544254
 H   3.95456375  -0.02925352  -1.54265237
 C   6.86858467   1.88810948   0.10806653
 H   7.68097622   2.39167750   0.60944387
 C   6.06509809  -0.00035225  -1.15538396
 H   6.24540294  -0.93673910  -1.67174009
 O   8.39831302   0.22471969  -0.53317737
 H   8.44141594  -0.60527091  -1.01490029
 C   7.11287404   0.68528559  -0.54415215
 N   4.16519295   1.77347653   2.85418393
 H   4.73032892   1.04235313   2.41713755
 C   4.79238597   2.36679521   4.00853280
 H   4.01823296   2.90049978   4.55457724
 C   5.85215900   3.42793983   3.60915306
 C   5.40397472   1.26623204   4.87268835
 H   4.61631866   0.54887887   5.11734055
 H   5.84319284   1.65790631   5.79111104
 O   6.64433669   3.32870101   2.67169751
 C   6.49901963   0.51127819   4.08407693
 O   7.57786132   0.34779401   4.67356623
 O   6.17979077   0.09089202   2.94882175
 N   5.88397896   4.52104312   4.41478857
 H   5.54346226   4.53432863   5.36860147
 C   6.96338334   5.44524830   4.23554494
 H   7.88173270   4.87103302   4.03864108
 C   7.11772783   6.18338037   5.58987436
 C   6.72706648   6.44142796   3.09676789
 H   6.13770370   7.28078333   3.46881610
 H   6.12909917   5.94827245   2.32820592
 O   7.92580499   7.11989675   5.62775379
 C   8.05784898   6.89871412   2.50510949
 H   8.76166920   7.10545586   3.31771770
 H   8.46933195   6.05396592   1.93902954
 C   7.93035400   8.12816562   1.61948937
 H   8.84020775   8.25378448   1.02621816
 H   7.10222455   8.00050810   0.91440868
 C   7.69850168   9.39135855   2.42541495
 H   8.53083755   9.52747882   3.12239125
 H   6.79483696   9.28214856   3.02728892
 N   7.56728819   10.59528709   1.56672613
 H   7.41551423   11.44303169   2.11326376
 H   6.78176897   10.49811918   0.92459865
 H   8.40553678   10.73628487   1.00492900
 O   6.41983990   5.73430975   6.52263679
 H  -3.01677856  -6.67470373  -2.92730118
