21
conf-746
 N  -3.32944212   0.59074671  -8.68021912
 H  -4.21279198   0.93432403  -9.06197392
 H  -2.90617490   1.34514301  -8.12996736
 H  -2.69994943   0.30150465  -9.43069891
 C  -3.53847893  -0.52325931  -7.73883266
 H  -4.33161572  -1.17710676  -8.10074769
 C  -3.92110025   0.07051515  -6.39417097
 C  -2.24603760  -1.33682967  -7.57025949
 H  -2.39344356  -2.11673860  -6.81956560
 H  -1.46380013  -0.66301309  -7.20605181
 O  -3.52110906   1.17973808  -6.06008454
 C  -1.76334244  -1.95198465  -8.86386033
 C  -0.80535297  -1.50236086  -9.71713745
 H  -0.15095165  -0.63738189  -9.63007845
 N  -2.31916675  -3.08924835  -9.43844865
 H  -3.06457337  -3.67014922  -9.03962494
 C  -1.70924695  -3.30271551  -10.61643653
 H  -1.92574833  -4.11210105  -11.28078015
 N  -0.78446988  -2.34372377  -10.81370927
 N  -4.67680523  -0.72034955  -5.57945516
 H  -4.67263542  -1.70668783  -5.79178942
 C  -4.77726777  -0.37087322  -4.16226799
 H  -4.74429888   0.71982125  -4.12715142
 C  -3.57507332  -0.96932447  -3.42939309
 C  -6.12209889  -0.82932899  -3.59675108
 H  -6.15277455  -1.92790843  -3.62927213
 O  -3.65207580  -1.94220386  -2.69144817
 C  -6.35611692  -0.33181869  -2.18296285
 H  -5.59515960  -0.70914630  -1.49877740
 H  -7.34212126  -0.65447944  -1.84590052
 H  -6.32981869   0.76027071  -2.18489047
 O  -7.17526172  -0.27908869  -4.38091840
 H  -6.94168076  -0.42254539  -5.30364933
 N  -2.38560681  -0.38541499  -3.73430957
 H  -2.37742349   0.51052743  -4.20581854
 C  -1.20052009  -0.74509464  -2.98650190
 H  -1.33322143  -1.77725284  -2.66749296
 C  -1.09383660   0.15715252  -1.77360657
 C   0.03976763  -0.61239486  -3.86692156
 H   0.01137202   0.37991858  -4.32979348
 H  -0.05062835  -1.34591219  -4.67343221
 O  -1.03767017   1.37508885  -1.89016983
 C   1.40123066  -0.78035149  -3.18903148
 H   1.51264193   0.05964495  -2.48707362
 C   1.54324356  -2.09196503  -2.42801265
 H   1.42527728  -2.93107658  -3.11844225
 H   0.81862384  -2.20510873  -1.62516345
 H   2.53935068  -2.15324291  -1.98438453
 C   2.49035522  -0.67886571  -4.25035011
 H   2.43105782  -1.53830243  -4.91878261
 H   3.48361747  -0.66886053  -3.78973799
 H   2.38097298   0.22492098  -4.85708257
 N  -1.04992501  -0.46939788  -0.56677518
 H  -0.96381230  -1.47104438  -0.56603390
 C  -0.53325589   0.24608207   0.60174353
 H  -0.97064987   1.24435267   0.55368546
 C   0.98924197   0.34373636   0.46083111
 C  -0.93525786  -0.48257280   1.86906128
 H  -0.61182544   0.07453803   2.75212436
 H  -0.47808504  -1.47235375   1.89910584
 H  -2.02146729  -0.58873708   1.90401323
 O   1.73723284  -0.58108722   0.75654915
 N   1.44615862   1.49243963  -0.08608626
 H   0.76836257   2.11448865  -0.50103548
 C   2.82799797   1.61156852  -0.51081718
 H   3.02980037   0.87737608  -1.30284843
 C   3.75019907   1.28890589   0.65632794
 C   3.10455765   3.02575648  -1.01997905
 H   2.96314250   3.71729909  -0.19082733
 H   4.15629431   3.08156289  -1.31166883
 O   3.75018337   1.94460958   1.69179295
 C   2.20705088   3.39520724  -2.16624809
 C   1.27095991   4.41817765  -2.03093193
 H   1.22198201   4.96986009  -1.09887047
 C   2.23879049   2.68460595  -3.36872220
 H   2.94301851   1.87719918  -3.48330138
 C   0.38325220   4.73578520  -3.05693992
 H  -0.34364198   5.52875353  -2.94613669
 C   1.37360083   3.00335815  -4.40900821
 H   1.41204104   2.45395100  -5.34163326
 O  -0.45229865   4.36417335  -5.23785466
 H  -0.31630842   3.78190443  -5.99116085
 C   0.43327154   4.02122718  -4.25112388
 N   4.57737541   0.24444823   0.44056765
 H   4.34646332  -0.46200334  -0.26238079
 C   5.29277770  -0.34986899   1.54398918
 H   4.56887500  -0.71292342   2.28437275
 C   6.20321513   0.69757709   2.18152320
 C   6.13033887  -1.49708312   0.99782340
 H   6.70200125  -1.99745552   1.77843394
 H   6.82046706  -1.07876982   0.26270125
 O   7.03585024   1.30663030   1.53132433
 C   5.25395532  -2.55414312   0.30592315
 O   5.43634040  -3.73086552   0.61547607
 O   4.45225991  -2.13909585  -0.57499070
 N   6.02451350   0.88952249   3.50363950
 H   5.45181098   0.31851607   4.10711255
 C   6.73034075   1.90422771   4.22759335
 H   7.80415211   1.85543063   4.00054435
 C   6.47793138   1.58121202   5.73094249
 C   6.22779820   3.31336135   3.88505377
 H   5.20187343   3.42851953   4.25471233
 H   6.16792521   3.37038414   2.79722321
 O   5.67648260   0.64973036   5.94683479
 C   7.14620524   4.41039261   4.40647160
 H   7.27941879   4.31468194   5.48596940
 H   8.13142284   4.24995060   3.95630526
 C   6.62570064   5.79356267   4.06083885
 H   6.52599171   5.89169469   2.97585709
 H   5.62183361   5.90872649   4.48295894
 C   7.49320251   6.92082077   4.58844619
 H   7.63999203   6.77909776   5.66271776
 H   6.98634157   7.87857254   4.45851696
 N   8.82214149   6.97601483   3.92649088
 H   9.40579731   7.72600208   4.29774093
 H   8.72790243   7.12149107   2.92152126
 H   9.33194260   6.10336797   4.05707789
 O   7.08960345   2.27004908   6.55864153
 H  -0.17039009  -2.24076354  -11.62382267
