21
conf-81
 N  -5.72878469  -6.80540968  -5.07358418
 H  -6.53405197  -6.77944654  -4.44749841
 H  -5.45676076  -7.77331987  -5.25509352
 H  -5.98000333  -6.35441895  -5.95648041
 C  -4.57752423  -6.08606869  -4.49999098
 H  -4.45668326  -6.36463677  -3.44594852
 C  -4.81079179  -4.58460778  -4.62203058
 C  -3.29882432  -6.51117077  -5.24618732
 H  -3.42497134  -6.24560916  -6.29783222
 O  -5.39070105  -4.10444069  -5.58762086
 C  -2.02850528  -5.89617934  -4.69806949
 H  -2.02203418  -4.80984418  -4.79367136
 H  -1.90965711  -6.15186288  -3.63866116
 H  -1.17143868  -6.29378705  -5.24505088
 O  -3.20460694  -7.93283869  -5.22675998
 H  -2.93334082  -8.18944046  -4.34274804
 N  -4.31745332  -3.83757669  -3.59751063
 H  -3.65761430  -4.26150828  -2.96048485
 C  -4.14223018  -2.40481446  -3.71982255
 H  -4.25424429  -2.14056789  -4.77394271
 C  -2.72651828  -2.07828236  -3.26480261
 C  -5.19546723  -1.59219176  -2.93144112
 H  -4.89885089  -0.54451049  -3.04676781
 O  -2.08743833  -2.81338225  -2.52741068
 C  -5.18230161  -1.91404465  -1.43580184
 H  -4.14219116  -1.96335303  -1.09571148
 H  -5.60519343  -2.91190264  -1.29920968
 C  -6.57839725  -1.79890320  -3.54744956
 H  -6.91015142  -2.82568914  -3.39211505
 H  -6.56168807  -1.61132191  -4.62377970
 H  -7.31637965  -1.13710474  -3.09289309
 C  -5.94817693  -0.90681090  -0.58944271
 H  -5.91440235  -1.17222374   0.46992978
 H  -6.99810488  -0.85020903  -0.88025063
 H  -5.52664309   0.09542472  -0.69693098
 N  -2.22537786  -0.89662003  -3.72788151
 H  -2.88482411  -0.24304410  -4.10805758
 C  -1.07017281  -0.29514506  -3.07873950
 H  -0.30785823  -1.07186336  -2.99474023
 C  -1.46768872   0.18382394  -1.67748155
 C  -0.57828522   0.88169457  -3.90887214
 H   0.29279672   1.35001932  -3.44437394
 H  -1.36899831   1.63062848  -3.98252154
 H  -0.30752961   0.54999671  -4.91251465
 O  -2.57224858   0.68869114  -1.46922532
 N  -0.51945481   0.03799816  -0.72392022
 H   0.42611739  -0.22220200  -0.96548558
 C  -0.65497569   0.64935516   0.58324612
 H  -1.41935699   1.42900070   0.51365388
 C   0.70668147   1.25457395   0.90452869
 C  -1.07175933  -0.36099393   1.65266317
 H  -1.21464858   0.15486784   2.60014830
 H  -0.27774639  -1.09093577   1.80356079
 O   1.73967029   0.71360072   0.50881375
 C  -2.36824334  -1.05850209   1.25299123
 H  -3.08087963  -0.31750751   0.87427690
 H  -2.19490002  -1.77605262   0.45033230
 C  -3.02901252  -1.76980878   2.42208336
 N  -3.94392217  -2.72141346   2.06091245
 H  -4.26680296  -2.79837135   1.10990931
 H  -4.47467052  -3.15003067   2.79836342
 O  -2.78695334  -1.51819304   3.58668984
 N   0.71559085   2.35813300   1.68254946
 H  -0.16415401   2.82898578   1.82981178
 C   1.91022396   3.19911519   1.76287999
 H   2.46552727   3.02842327   0.83137240
 C   2.79094227   2.76332698   2.93347465
 C   1.52181840   4.68091089   1.84290686
 H   2.43768578   5.26514345   1.91757371
 H   0.95216580   4.85685043   2.75249098
 O   3.12942402   3.53106821   3.83602859
 C   0.73865580   5.07116759   0.64767126
 C   1.37559409   5.17892980  -0.60308629
 H   2.45316156   5.04280916  -0.64457607
 C  -0.65621407   5.23129327   0.71355285
 H  -1.15071166   5.15510657   1.67792425
 C   0.68113658   5.44146352  -1.75119252
 H   1.17007509   5.52842706  -2.71253928
 C  -1.40630976   5.47167917  -0.40516894
 H  -2.48085998   5.58920661  -0.36366392
 O  -1.42766545   5.78661371  -2.73626023
 C  -0.77053095   5.58045620  -1.71402556
 N   3.16614439   1.46892706   2.92186142
 H   2.96153854   0.90848675   2.10173321
 C   4.03690066   0.93089026   3.95427794
 H   3.79142268   1.46935135   4.87448861
 C   5.48871458   1.23742427   3.57130358
 C   3.79382744  -0.55722736   4.11697988
 H   4.41084657  -0.95805101   4.92362082
 H   2.74155406  -0.72820663   4.35250599
 H   4.04736925  -1.08859411   3.19770303
 O   6.24146386   0.39935796   3.09481345
 N   5.85131029   2.53497960   3.74483881
 H   5.16132564   3.21133721   4.05024410
 C   7.10882364   3.01739152   3.22733942
 H   7.73922378   2.14739123   3.02892023
 C   7.84615696   3.88310168   4.22716264
 C   6.94840169   3.80611474   1.91827924
 H   7.93041672   4.20497651   1.66294537
 H   6.28696843   4.65817695   2.09367069
 O   9.04152599   4.01548159   4.25820428
 C   6.41803287   2.94079090   0.78536897
 H   5.42252586   2.56144304   1.02715272
 H   7.06419764   2.07255468   0.67249021
 C   6.32096394   3.67171029  -0.54490821
 H   5.60271046   4.49244829  -0.46608886
 H   5.93880635   3.00453432  -1.32228313
 N   7.57669954   4.28900942  -1.01221871
 H   7.77625969   5.19533964  -0.61433421
 N   8.57308880   2.22973982  -1.46296970
 H   9.30612209   1.73284401  -1.94287979
 H   7.65321804   1.82909642  -1.54518282
 N   9.85404417   4.19549579  -1.46947279
 H   10.59074080   3.69467422  -1.94414863
 H   9.83603354   5.19030849  -1.65066594
 C   8.65936393   3.56787382  -1.33260353
 O   7.00935857   4.54180763   5.05865099
 H   7.56090024   5.08118453   5.63950163
