21
conf-497
 N  -7.22358303  -4.19365142  -5.89178413
 H  -8.04177239  -4.02628758  -5.30534031
 H  -7.22280906  -5.17022512  -6.17573822
 H  -7.33601909  -3.60714564  -6.71770397
 C  -5.99677209  -3.81759509  -5.16570779
 H  -5.95014104  -4.36833428  -4.21945695
 C  -6.06867398  -2.32145360  -4.85282857
 C  -4.71981187  -4.13711220  -5.95714149
 H  -3.87098446  -3.73209529  -5.40001565
 O  -6.96945760  -1.61819861  -5.28503322
 C  -4.50329997  -5.61826808  -6.17990952
 H  -4.49310148  -6.16674529  -5.23482507
 H  -5.28715009  -6.03991806  -6.81328231
 H  -3.54855953  -5.77325435  -6.68659627
 O  -4.70330044  -3.43789713  -7.19718303
 H  -5.36952842  -3.83367648  -7.76252704
 N  -5.08892953  -1.86318807  -4.03443976
 H  -4.26466938  -2.42538239  -3.87390685
 C  -4.84220881  -0.44534973  -3.82381444
 H  -5.42642631   0.13306347  -4.54607052
 C  -3.34156316  -0.28269555  -4.06782661
 C  -5.25822445   0.00702689  -2.40446886
 H  -4.73252062  -0.65367665  -1.70679478
 O  -2.56616507  -1.18080772  -3.77972188
 C  -6.76554481  -0.18582625  -2.20973482
 H  -7.05872200  -1.16321091  -2.59234116
 H  -7.27853122   0.55126474  -2.83950528
 C  -4.87340315   1.46080832  -2.12255815
 H  -5.33200913   2.12323522  -2.86556840
 H  -3.79455465   1.62661097  -2.13942644
 H  -5.23908735   1.76949451  -1.14237123
 C  -7.22785312  -0.06006310  -0.76349635
 H  -8.30325672  -0.23298155  -0.68954164
 H  -7.02044244   0.92655391  -0.34752466
 H  -6.72579263  -0.79991104  -0.13321070
 N  -2.93758760   0.88627708  -4.63748326
 H  -3.57168045   1.66950434  -4.59124985
 C  -1.52790353   1.23228052  -4.67281794
 H  -0.98363994   0.28879652  -4.67728300
 C  -1.17843006   2.02754829  -3.41421424
 C  -1.19926407   2.05886446  -5.90835349
 H  -0.12827914   2.27258956  -5.94286585
 H  -1.73655655   3.00881738  -5.87855363
 H  -1.47902541   1.51957114  -6.81448604
 O  -1.91761458   2.92535000  -3.00365363
 N  -0.00034005   1.73554566  -2.82922365
 H   0.59390236   0.98751969  -3.15531366
 C   0.44432617   2.45013966  -1.64844788
 H   0.26037516   3.51521887  -1.80288556
 C   1.92990073   2.12750867  -1.50524411
 C  -0.32613318   1.98531109  -0.39309153
 H  -0.03090764   0.95804447  -0.18513884
 H  -1.38679864   1.97366533  -0.64444826
 O   2.37432288   1.04324559  -1.82788256
 C  -0.08817119   2.85795743   0.84013336
 H   0.94067882   3.16749782   0.91628400
 H  -0.67726803   3.77702166   0.78055287
 C  -0.47033501   2.14776348   2.13540234
 N   0.09595465   2.65549517   3.27377739
 H   0.92751645   3.22077211   3.23734503
 H  -0.11367028   2.15951507   4.12195405
 O  -1.27459437   1.23517589   2.17246463
 N   2.71460081   3.10416129  -0.95614115
 H   2.25147313   3.92479353  -0.60918119
 C   3.93724322   2.71648622  -0.24925518
 H   4.41424182   1.94374669  -0.84112798
 C   3.59324703   2.14091235   1.14571772
 C   4.86551205   3.92175113  -0.05613735
 H   4.33651536   4.64726487   0.56182063
 H   5.04451889   4.36578930  -1.03523571
 O   3.02296669   2.86159160   1.98949610
 C   6.16266669   3.53172834   0.57853070
 C   6.31727011   3.56675241   1.97330938
 H   5.47571025   3.87602933   2.58944593
 C   7.23348121   3.07234165  -0.20576414
 H   7.12209630   3.04720368  -1.28559827
 C   7.49518677   3.19526071   2.57663440
 H   7.62266188   3.24529133   3.64979358
 C   8.42163045   2.66417117   0.34839388
 H   9.24517467   2.31243839  -0.25859064
 O   9.67262536   2.33896608   2.31648653
 C   8.61707380   2.70176240   1.79103248
 N   3.94991490   0.82961400   1.32454162
 H   4.54953136   0.43596332   0.61724546
 C   4.15029077   0.28710729   2.66066273
 H   3.72611494   1.00224968   3.36235545
 C   5.65552913   0.16982233   2.89787500
 C   3.48647349  -1.07591182   2.80280154
 H   3.64653882  -1.47296086   3.80926563
 H   2.41612558  -1.00271462   2.61122570
 H   3.92978883  -1.77715332   2.09105370
 O   6.42688819  -0.19251196   2.02795281
 N   6.08826074   0.45624321   4.15625059
 H   5.40869326   0.58406528   4.89609494
 C   7.44759674   0.07510952   4.50717529
 H   8.14076075   0.57465931   3.82299194
 C   7.62222458  -1.42273562   4.34557420
 C   7.74546790   0.47654906   5.95427487
 H   7.46919266   1.52527894   6.04563716
 H   8.82182103   0.41465871   6.12603200
 O   6.73695631  -2.24330662   4.38141999
 C   6.98342027  -0.39974370   6.94585719
 H   7.54040864  -1.31946320   7.13875586
 H   6.04839157  -0.70812102   6.49464561
 C   6.66129956   0.26766002   8.27441807
 H   7.56854032   0.40777117   8.86408742
 H   5.99636488  -0.38319617   8.85529653
 N   6.06665056   1.61148940   8.13374404
 H   6.45270957   2.33177152   8.72339318
 N   4.15565694   0.84121681   7.03746647
 H   3.16212717   0.99943618   6.96308234
 H   4.37195772  -0.07253247   7.42201138
 N   4.37277867   3.11415013   7.61172724
 H   3.63593968   3.31035909   6.94920038
 H   5.05223715   3.86302355   7.68565943
 C   4.86987614   1.84984765   7.60553800
 O   8.92845876  -1.75218881   4.23550421
 H   8.95290940  -2.71362051   4.15817718
