21
conf-553
 N  -6.91045539  -2.48558352  -8.88418284
 H  -7.65769873  -2.75152329  -8.24186737
 H  -6.96654477  -3.04613756  -9.73682548
 H  -7.01304768  -1.49668080  -9.12527865
 C  -5.58093719  -2.67715134  -8.27199220
 H  -5.53959716  -3.65465679  -7.77863618
 C  -5.34352270  -1.56687168  -7.26082477
 C  -4.51606670  -2.64603091  -9.37827309
 H  -4.57616089  -1.67051912  -9.86410493
 O  -5.57001963  -0.39195339  -7.54788647
 C  -3.10861320  -2.90085606  -8.88375424
 H  -2.78993725  -2.13312121  -8.17400047
 H  -3.05492173  -3.87551160  -8.39032287
 H  -2.41809646  -2.89677134  -9.72915954
 O  -4.86358808  -3.59329097  -10.38526243
 H  -4.65382579  -4.46526292  -10.04405739
 N  -4.86599826  -1.94156843  -6.05268669
 H  -4.51788033  -2.87426698  -5.87416406
 C  -4.48004426  -0.94906758  -5.07124728
 H  -3.98804877  -0.12963755  -5.60283070
 C  -3.48480474  -1.63295467  -4.13860906
 C  -5.70514540  -0.35453332  -4.33652758
 H  -6.42063509  -0.15822688  -5.14174421
 O  -3.34807339  -2.84467094  -4.10198130
 C  -5.42325508   0.98853649  -3.66109673
 H  -4.81778781   0.84846548  -2.76014239
 H  -6.38944777   1.36478551  -3.30847154
 C  -6.31647270  -1.33814469  -3.34045563
 H  -5.63624235  -1.50090964  -2.50091492
 H  -6.51545265  -2.30531088  -3.80879702
 H  -7.25543900  -0.94366098  -2.94613730
 C  -4.78997256   2.02862951  -4.57481176
 H  -4.90168789   3.03269239  -4.16241695
 H  -5.26147325   2.01343091  -5.56364682
 H  -3.71883929   1.84665378  -4.71209763
 N  -2.81110161  -0.79956562  -3.31905729
 H  -2.93250748   0.19872945  -3.32110354
 C  -1.94006416  -1.27087350  -2.27061839
 H  -2.42264575  -2.10439349  -1.75250325
 C  -1.77306826  -0.07568536  -1.33634849
 C  -0.58741973  -1.74290702  -2.81048047
 H   0.08560893  -1.96817055  -1.97971631
 H  -0.13486379  -0.95513953  -3.41806532
 H  -0.72852590  -2.62790088  -3.42847870
 O  -2.03690481   1.05688676  -1.70061678
 N  -1.29180780  -0.36619638  -0.08972927
 H  -0.90319422  -1.28840032   0.02190239
 C  -0.55773753   0.65653398   0.64865496
 H  -1.04100126   1.60493083   0.43607947
 C   0.89005296   0.67376934   0.14437103
 C  -0.60334413   0.34408873   2.14866177
 H  -0.18284802  -0.65667106   2.29807249
 H  -1.65939107   0.29276944   2.42514442
 O   1.44509011  -0.33237333  -0.26559094
 C   0.11881405   1.32571571   3.07675640
 H  -0.00280460   0.99170284   4.11032141
 H   1.18276092   1.34832084   2.86285579
 C  -0.41607516   2.73679568   2.92413011
 N  -1.24357363   3.16416669   3.91070538
 H  -1.50816381   2.57734416   4.67925201
 H  -1.64902175   4.07805195   3.81912043
 O  -0.13606931   3.43965710   1.96547554
 N   1.50757709   1.87493614   0.20173477
 H   1.02584327   2.62890942   0.69024844
 C   2.93973725   1.96808087  -0.00544912
 H   3.17185132   1.45413018  -0.93609897
 C   3.69576254   1.30456669   1.13385670
 C   3.32746001   3.45202853  -0.09419100
 H   2.96557364   3.94552837   0.81166760
 H   2.77623920   3.87650797  -0.93569698
 O   3.43325843   1.57675899   2.30544497
 C   4.79842541   3.71602970  -0.23430266
 C   5.39990369   4.76352261   0.48611341
 H   4.79332609   5.38059374   1.13517021
 C   5.61200513   2.92921972  -1.07035543
 H   5.16490036   2.13758601  -1.66120204
 C   6.73930150   5.03088115   0.39648650
 H   7.20107134   5.85040176   0.93475398
 C   6.97009008   3.12550426  -1.15434225
 H   7.59733010   2.50302770  -1.77890729
 O   8.83405572   4.40055856  -0.49166989
 C   7.62069146   4.20217370  -0.41611583
 N   4.68869567   0.45368549   0.80172274
 H   4.96441718   0.38384653  -0.16396662
 C   5.64956902  -0.00856553   1.79408277
 H   5.07014708  -0.23708198   2.69148971
 C   6.64163383   1.11375623   2.12393978
 C   6.37364164  -1.23727517   1.27629379
 H   7.10055036  -1.58154194   2.01428495
 H   5.65377427  -2.03417800   1.08275183
 H   6.91031825  -1.00375318   0.35567366
 O   7.76521999   1.17449624   1.63796009
 N   6.20147031   2.05921349   2.98879968
 H   5.23374621   2.07474796   3.27427823
 C   7.12203176   3.07874874   3.43245653
 H   7.46776564   3.63615754   2.54939499
 C   8.33098543   2.41989314   4.08225273
 C   6.46249975   4.02299225   4.43797197
 H   7.23472197   4.62454404   4.91365200
 H   6.01467550   3.40965184   5.22074215
 O   8.34005285   1.35837133   4.64432941
 C   5.42388400   4.93499081   3.81488716
 H   4.68232066   4.34251668   3.26744434
 H   5.91195078   5.58039883   3.07532947
 C   4.71398053   5.79813879   4.83694138
 H   4.29593361   5.16358174   5.62081974
 H   3.88340473   6.34342591   4.37334693
 N   5.68339204   6.73613828   5.44624516
 H   6.34512620   7.12628477   4.78960404
 N   4.12442060   7.51008942   7.01298994
 H   3.99557919   7.94937127   7.91049315
 H   3.57276067   6.68523731   6.84530261
 N   6.18938955   8.58933055   6.73750090
 H   6.01696838   9.08485524   7.59875231
 H   7.16714637   8.42978139   6.53553277
 C   5.32627483   7.59650412   6.41286531
 O   9.41857322   3.22788224   4.01952824
 H   10.11988137   2.74924039   4.47762129
