21
conf-231
 N  -6.18695969   0.58210042  -7.27971627
 H  -6.85689181   0.37689343  -6.53609680
 H  -6.61592534   0.36302729  -8.17954176
 H  -5.96487260   1.57921715  -7.25156684
 C  -4.93942692  -0.20216568  -7.10940045
 H  -5.18033581  -1.26013611  -6.99052410
 C  -4.22977306   0.28422451  -5.83836679
 C  -4.07015823  -0.05374643  -8.35190238
 H  -3.97410949   1.01992377  -8.56632898
 O  -3.70838245   1.43720573  -5.77699383
 C  -2.69079840  -0.66037228  -8.19869471
 H  -2.14181467  -0.10132681  -7.43817219
 H  -2.76930225  -1.70381646  -7.88885592
 H  -2.14269568  -0.60406949  -9.14028512
 O  -4.80271542  -0.69154613  -9.40336708
 H  -4.32072112  -0.56071236  -10.22306262
 N  -4.28262539  -0.57280970  -4.78091387
 H  -4.56770273  -1.52365335  -4.93352101
 C  -3.63144074  -0.23303917  -3.52381740
 H  -3.41626309   0.83210847  -3.55338150
 C  -2.27689339  -0.90541593  -3.51002604
 C  -4.52370887  -0.44819702  -2.31142405
 H  -4.79048057  -1.50859918  -2.26492380
 O  -2.03330445  -1.92925058  -2.88852754
 C  -5.81516676   0.37045952  -2.49848542
 H  -6.38818375   0.31211233  -1.56867831
 H  -6.43475479  -0.10036136  -3.26776238
 C  -3.80578699  -0.04881677  -1.01832874
 H  -3.47044125   0.98823687  -1.07569472
 H  -2.93425548  -0.67649583  -0.83972969
 H  -4.47704446  -0.14405313  -0.16130431
 C  -5.59047258   1.83462945  -2.87062407
 H  -6.51888132   2.40121866  -2.79119774
 H  -5.22138182   1.95568323  -3.89025361
 H  -4.85523415   2.30234464  -2.21077591
 N  -1.36303029  -0.33909527  -4.33216452
 H  -1.59547766   0.56319397  -4.72495102
 C   0.04109791  -0.65111567  -4.13134007
 H   0.18566782  -1.70791880  -4.37050748
 C   0.34935081  -0.44562044  -2.64861608
 C   0.89675194   0.23680105  -5.01461138
 H   1.96181014   0.10935726  -4.80462991
 H   0.63629993   1.28545856  -4.85984673
 H   0.71544633  -0.00460465  -6.06401927
 O  -0.09127197   0.52161513  -2.03803284
 N   1.08622596  -1.41453537  -2.05264969
 H   1.33264206  -2.22699350  -2.59379598
 C   0.99464565  -1.59626350  -0.59623147
 H  -0.05464970  -1.41427476  -0.33317408
 C   1.84814553  -0.54758120   0.10434378
 C   1.39947697  -3.01666938  -0.22222548
 H   1.46923334  -3.10417715   0.86265056
 H   2.39597632  -3.20328846  -0.62123742
 O   3.00656511  -0.78024913   0.46626289
 C   0.39894861  -4.05620674  -0.73793927
 H   0.17984488  -3.90139222  -1.79891704
 H   0.82293438  -5.05647308  -0.62118613
 C  -0.86789226  -4.03178453   0.09608157
 N  -1.99042451  -3.58930502  -0.52056607
 H  -1.98595300  -3.11305638  -1.40899223
 H  -2.81790697  -3.57122926   0.04727377
 O  -0.86556724  -4.40457673   1.25845127
 N   1.25847291   0.64268550   0.36086311
 H   0.42345314   0.90907559  -0.14837133
 C   2.02329310   1.71289576   0.97793454
 H   3.06221592   1.58261349   0.65805212
 C   1.97135825   1.58637823   2.50436305
 C   1.50665678   3.07959105   0.52847455
 H   2.12855267   3.83378155   1.01498746
 H   0.49700783   3.22379893   0.91081948
 O   1.43609798   2.42753192   3.22942093
 C   1.52499796   3.24104220  -0.94911984
 C   2.71876307   3.10992673  -1.67250935
 H   3.63794847   2.91689905  -1.12976024
 C   0.33854650   3.49848252  -1.64385247
 H  -0.59723468   3.55372050  -1.09615848
 C   2.75841302   3.23817870  -3.04023072
 H   3.68277627   3.15527837  -3.59681250
 C   0.31219431   3.61613710  -3.00858700
 H  -0.60898942   3.76851146  -3.55577539
 O   1.53140566   3.57261234  -5.02156605
 C   1.53675546   3.49116584  -3.78740972
 N   2.53743243   0.47479666   3.01376101
 H   2.99920618  -0.17347518   2.38439845
 C   2.56474748   0.23527837   4.44461393
 H   1.64940389   0.68224852   4.84637504
 C   3.77024619   0.96665614   5.05153195
 C   2.60900131  -1.25366379   4.73002598
 H   2.60025233  -1.43350053   5.80655429
 H   1.73787155  -1.73459420   4.28139374
 H   3.51834471  -1.69557084   4.31856993
 O   4.77121368   0.38545288   5.44790896
 N   3.66350494   2.32150828   5.06763295
 H   2.82167705   2.77248622   4.72925052
 C   4.67624383   3.13582734   5.69701589
 H   5.31726621   2.47485404   6.28883979
 C   4.01900558   4.13713282   6.62515431
 C   5.55260666   3.87928649   4.68150029
 H   6.20497735   4.57021493   5.21174477
 H   4.92069681   4.48588815   4.03478753
 O   2.87100549   4.49223166   6.57252307
 C   6.38713660   2.92688534   3.83965085
 H   5.74705580   2.18995363   3.35207720
 H   7.05424699   2.36400674   4.50038319
 C   7.19617687   3.64183005   2.76373555
 H   6.52012184   4.07633063   2.02659529
 H   7.83182664   2.92795573   2.23984488
 N   8.08979302   4.69316571   3.29673303
 H   8.76929089   4.31508381   3.94402576
 N   6.57007786   6.44310336   3.00963901
 H   6.30599308   7.39366273   3.20874095
 H   6.39930205   6.14457283   2.06089408
 N   8.14452566   6.54152382   4.74105602
 H   8.01132520   7.54093574   4.80887306
 H   9.04003435   6.22841689   5.08993983
 C   7.62039266   5.90118985   3.66217796
 O   4.89757698   4.62484340   7.52653885
 H   4.40700292   5.27070032   8.05014985
