21
conf-34
 N  -5.01069094  -2.35968523  -7.85318311
 H  -5.94240649  -2.77674726  -7.85129010
 H  -4.55921532  -2.51339756  -8.75659730
 H  -5.09147958  -1.35517591  -7.67735992
 C  -4.15928024  -2.93391473  -6.79408001
 H  -4.25868686  -4.02354140  -6.77416034
 C  -4.56420754  -2.33819441  -5.45745307
 C  -2.69660455  -2.59565741  -7.10249072
 H  -2.60971236  -1.49887754  -7.11971298
 O  -4.88226811  -1.15917324  -5.35977771
 C  -1.70068641  -3.18799380  -6.12469471
 H  -1.83188563  -2.79552881  -5.11632655
 H  -1.81016450  -4.27552482  -6.09091385
 H  -0.68315846  -2.95517212  -6.43973101
 O  -2.46045016  -3.11191853  -8.41593618
 H  -1.57011645  -2.86557101  -8.67629101
 N  -4.54445703  -3.18964647  -4.39005574
 H  -3.97556695  -4.01769430  -4.48651150
 C  -4.56226135  -2.63396916  -3.03202504
 H  -5.29342362  -1.82543429  -3.02192839
 C  -3.15715699  -2.04830789  -2.78562429
 C  -4.96202048  -3.70073847  -2.00185176
 H  -4.33348109  -4.57608677  -2.20591570
 O  -2.15408410  -2.79680354  -2.61917303
 C  -6.43277880  -4.09063585  -2.18924509
 H  -6.64368577  -4.21628824  -3.25193916
 H  -7.04854820  -3.24881627  -1.85463456
 C  -4.69508229  -3.20932493  -0.57772191
 H  -5.23269253  -2.27384630  -0.40328162
 H  -3.62389957  -3.02554785  -0.43955164
 H  -5.01438358  -3.93863393   0.16569119
 C  -6.83152776  -5.35980751  -1.44970198
 H  -7.88483242  -5.59128354  -1.61789302
 H  -6.67897483  -5.27132919  -0.37275088
 H  -6.24132358  -6.21299667  -1.79639592
 N  -3.09812220  -0.69134208  -2.84797270
 H  -3.89785195  -0.20164293  -3.21880167
 C  -1.83108275   0.01825803  -2.82191529
 H  -1.06538541  -0.70649430  -3.11437668
 C  -1.54117865   0.45455940  -1.38698615
 C  -1.84127488   1.18928773  -3.77632445
 H  -0.89459138   1.73716769  -3.70871772
 H  -2.65291550   1.87392656  -3.52132167
 H  -1.98077349   0.82679108  -4.79789856
 O  -1.74769466   1.59860403  -0.97416142
 N  -1.06204580  -0.51547225  -0.58068325
 H  -1.01536909  -1.46423009  -0.93315745
 C  -0.71753066  -0.24095865   0.80917423
 H  -1.43085289   0.51941714   1.14872932
 C   0.69874076   0.34656495   0.87266254
 C  -0.85863678  -1.50198451   1.64794967
 H  -0.03352517  -2.17635555   1.42207939
 H  -1.78057604  -2.00108053   1.33432946
 O   1.64865863  -0.24469942   1.37769844
 C  -0.93262253  -1.21287638   3.14379749
 H   0.01752396  -0.82248655   3.51218870
 H  -1.68900375  -0.44640742   3.33448797
 C  -1.35277127  -2.44454623   3.93558130
 N  -0.94293424  -2.47115342   5.23508970
 H  -0.39775488  -1.73877421   5.64889368
 H  -1.22803062  -3.25533602   5.79433141
 O  -2.04553600  -3.32660695   3.45941487
 N   0.84015071   1.56574248   0.29751447
 H   0.03728455   2.01528567  -0.12522725
 C   2.12264740   2.23584764   0.30939870
 H   2.84830407   1.57636978  -0.17273983
 C   2.55471954   2.48586326   1.75482270
 C   2.04746604   3.56945951  -0.43711868
 H   3.01015761   4.07363858  -0.31432259
 H   1.29843685   4.18941621   0.05349025
 O   1.83648870   3.06591447   2.55155032
 C   1.73047714   3.41099785  -1.88659402
 C   2.62464201   2.75568466  -2.74597972
 H   3.54393486   2.35689408  -2.32935424
 C   0.54570391   3.92093687  -2.42304248
 H  -0.17914805   4.39005296  -1.76248554
 C   2.37746355   2.61584753  -4.09045345
 H   3.06708849   2.10295802  -4.74824603
 C   0.26278647   3.84584911  -3.76724791
 H  -0.66317461   4.21933131  -4.18227432
 O   0.89196869   3.00388111  -5.87440555
 C   1.15773967   3.14627074  -4.67751755
 N   3.79009595   2.04377594   2.08006948
 H   4.36708108   1.53635615   1.42964480
 C   4.24207458   2.02248741   3.45060338
 H   4.08809694   3.01596708   3.87744047
 C   5.73598766   1.68075415   3.39686506
 C   3.47759281   0.99751237   4.29405788
 H   3.83550226   1.00156657   5.32404323
 H   2.41587238   1.24074352   4.28141792
 H   3.60206121  -0.00570901   3.87733940
 O   6.23566499   1.13358167   2.43124169
 N   6.43613747   1.97990639   4.51583145
 H   5.99579754   2.45279617   5.28825665
 C   7.85502666   1.67101347   4.58697847
 H   8.00873260   0.69481182   4.11952976
 C   8.30274817   1.57048336   6.02607167
 C   8.69952687   2.70304988   3.82185608
 H   8.58748158   3.67558951   4.30009988
 H   8.26160222   2.77594110   2.82550405
 O   9.15619041   0.82543501   6.43450813
 C   10.16106044   2.29486467   3.71996469
 H   10.21104564   1.25965063   3.36329864
 H   10.64015321   2.30442676   4.69872064
 C   10.96335364   3.15914406   2.76286416
 H   10.49529167   3.16228542   1.77165448
 H   11.96430506   2.73373890   2.64863587
 N   11.08010393   4.53476277   3.28640820
 H   10.28851234   4.84435349   3.83244340
 N   12.38670456   5.23093523   1.47628300
 H   13.06370386   5.89709616   1.14104746
 H   12.58017514   4.26591260   1.26701888
 N   11.57259927   6.78740058   3.03209274
 H   12.21584307   7.46377052   2.65071412
 H   11.35512976   6.92581827   4.01012451
 C   11.69774679   5.50737865   2.60130349
 O   7.66498196   2.45913851   6.82100695
 H   8.02221757   2.34603130   7.71056395
