21
conf-879
 N  -7.16047151  -6.50701896  -3.51696040
 H  -7.36720640  -6.71952105  -2.54046862
 H  -7.00811883  -7.37260817  -4.03814353
 H  -7.95366084  -6.00487718  -3.92309954
 C  -5.96103772  -5.65922853  -3.64134194
 H  -5.16574106  -6.04798945  -2.99375974
 C  -6.30570199  -4.22992994  -3.24330273
 C  -5.45334489  -5.72062493  -5.09406111
 H  -6.25618084  -5.36133892  -5.74094603
 O  -7.38784902  -3.72977935  -3.52369352
 C  -4.18870526  -4.92538055  -5.34063451
 H  -4.34503573  -3.85502217  -5.19519345
 H  -3.38970930  -5.25497122  -4.66593640
 H  -3.85835268  -5.08456101  -6.36878199
 O  -5.25917694  -7.08468083  -5.45644574
 H  -4.46103121  -7.38644264  -5.01727717
 N  -5.32255793  -3.56418865  -2.57728909
 H  -4.38623656  -3.94116111  -2.59927734
 C  -5.34121590  -2.12204843  -2.45559258
 H  -6.09341088  -1.73207288  -3.14526524
 C  -3.96480012  -1.62879674  -2.88251001
 C  -5.71575731  -1.63015676  -1.03811557
 H  -5.59146001  -0.54227532  -1.06422134
 O  -2.98315403  -2.36220742  -2.87278412
 C  -4.77478838  -2.17954386   0.03622645
 H  -3.74632757  -2.11070863  -0.33566534
 H  -4.99305428  -3.24131488   0.17281331
 C  -7.17569421  -1.97084010  -0.74103173
 H  -7.30390764  -3.05150178  -0.67802477
 H  -7.83510893  -1.60061361  -1.53010750
 H  -7.49728850  -1.54106381   0.20808585
 C  -4.87528582  -1.45329411   1.37141541
 H  -4.21619829  -1.91212437   2.10932085
 H  -5.88802459  -1.47322653   1.77451573
 H  -4.58096997  -0.40649638   1.26714770
 N  -3.90136247  -0.32575767  -3.27489567
 H  -4.68068156   0.25530398  -3.02547682
 C  -2.61634974   0.35874006  -3.31140279
 H  -1.92937027  -0.27915999  -3.87170291
 C  -2.10129570   0.51397015  -1.87726651
 C  -2.77166392   1.71672268  -3.97443493
 H  -1.80919531   2.22991079  -4.03315194
 H  -3.45718896   2.33996189  -3.39704735
 H  -3.16685211   1.59713311  -4.98485741
 O  -2.86218700   0.77505392  -0.94625582
 N  -0.77036017   0.35956713  -1.71833019
 H  -0.14740910   0.19437068  -2.49330306
 C  -0.16583824   0.36197342  -0.40603694
 H  -0.44297053   1.29099464   0.10564705
 C   1.35228460   0.32880163  -0.63557402
 C  -0.64941485  -0.80341265   0.47457377
 H  -1.67428184  -0.58015502   0.78164407
 H  -0.04084658  -0.84490441   1.37871383
 O   1.83411427   0.04204536  -1.71757790
 C  -0.60164772  -2.15373930  -0.23444099
 H  -1.32276408  -2.20584078  -1.04579635
 H   0.38345349  -2.31602025  -0.67333836
 C  -0.83054487  -3.30395202   0.73364750
 N  -1.46814866  -4.38770982   0.20508030
 H  -1.78807878  -4.41151403  -0.74475443
 H  -1.59370516  -5.18557696   0.80153137
 O  -0.42829262  -3.28541017   1.88317144
 N   2.10284551   0.59767634   0.45691595
 H   1.69151409   0.86116794   1.33634378
 C   3.53731001   0.73614336   0.37138471
 H   3.94104579  -0.14329080  -0.13715157
 C   4.05477595   0.78456173   1.80743244
 C   3.95471747   1.97098919  -0.45103745
 H   3.69287770   1.76608277  -1.48632268
 H   5.04337745   2.06678864  -0.39303178
 O   3.31729352   0.93744030   2.76465167
 C   3.28771455   3.22669406   0.00212296
 C   2.18292768   3.75148448  -0.68620851
 H   1.81773874   3.24289830  -1.57008792
 C   3.73259333   3.91629638   1.13056935
 H   4.58238255   3.53176142   1.68593037
 C   1.54416065   4.90144922  -0.27272446
 H   0.70264652   5.30339685  -0.81977465
 C   3.12521346   5.07152982   1.57762249
 H   3.50971560   5.59262009   2.44068702
 O   1.40225110   6.66626918   1.27021348
 C   1.97951318   5.62781310   0.89451056
 N   5.39788933   0.64545310   1.93996755
 H   5.98394552   0.67390324   1.12571915
 C   6.04393447   0.62246330   3.23848125
 H   5.48991492  -0.08334510   3.86407199
 C   5.98588431   1.99843601   3.91649726
 C   7.49303490   0.17967403   3.08288928
 H   7.98570225   0.11130245   4.05547516
 H   7.54315096  -0.79883037   2.60302612
 H   8.03679795   0.90359877   2.47395936
 O   6.12548778   3.05179161   3.30463474
 N   5.81939887   1.93785551   5.26597294
 H   5.92888038   1.05593027   5.73733286
 C   5.89492572   3.12272634   6.08594430
 H   6.29082304   3.93270471   5.46954616
 C   6.84562947   2.86657991   7.23401818
 C   4.52599307   3.54127582   6.63078568
 H   4.67237486   4.44379534   7.22572360
 H   4.15016139   2.77069515   7.30730208
 O   7.22380577   1.78319265   7.59992261
 C   3.50313848   3.80227326   5.53207220
 H   3.33663319   2.90467350   4.94466732
 H   3.88769244   4.55684008   4.84405484
 C   2.18471806   4.28040297   6.12186523
 H   2.35189497   5.14431851   6.77685299
 H   1.76165179   3.48758333   6.74233328
 N   1.16135891   4.59632113   5.11388635
 H   0.33593915   4.01667516   5.10388814
 N   2.14671151   6.60833280   4.48300586
 H   1.91554599   7.57564422   4.30205142
 H   2.78743119   6.47700411   5.25337143
 N   0.05492271   6.06161823   3.64777554
 H   0.34659282   6.50201321   2.77206273
 H  -0.65991035   5.34912583   3.53510106
 C   1.10516095   5.73717514   4.42403781
 O   7.20832372   4.01526189   7.83887709
 H   7.79099167   3.75913812   8.56511902
