21
conf-883
 N  -8.01602274  -1.13437811  -8.18941050
 H  -8.56640010  -0.55333364  -7.55675852
 H  -8.60462692  -1.85609585  -8.60892856
 H  -7.62026268  -0.54396444  -8.92489124
 C  -6.89423934  -1.78106647  -7.48598624
 H  -7.23223637  -2.15460378  -6.51201866
 C  -5.78375658  -0.75424757  -7.30183815
 C  -6.40566719  -2.98360219  -8.31281528
 H  -6.03931520  -2.60373095  -9.26876924
 O  -5.55667749   0.09651237  -8.15616321
 C  -5.34164782  -3.80961675  -7.62299400
 H  -4.44041805  -3.22665713  -7.42075810
 H  -5.72826105  -4.19454418  -6.67412267
 H  -5.07101058  -4.65761237  -8.25495840
 O  -7.52405879  -3.80464299  -8.64214370
 H  -7.76289325  -4.29476208  -7.85244898
 N  -5.05654035  -0.85629863  -6.16678666
 H  -5.11119972  -1.66593550  -5.56403650
 C  -3.87391545  -0.04105843  -5.97229449
 H  -3.37516760   0.06033613  -6.93928359
 C  -2.98331855  -0.81340718  -5.00744297
 C  -4.23598636   1.38174894  -5.48581210
 H  -5.05996608   1.67446519  -6.14488498
 O  -3.40851688  -1.74220812  -4.33657306
 C  -3.12020519   2.40664846  -5.69031411
 H  -2.32978733   2.26013191  -4.94849864
 H  -3.55699471   3.38470343  -5.46450985
 C  -4.71421195   1.39379025  -4.03406670
 H  -3.88780584   1.17962490  -3.36286220
 H  -5.49473808   0.64679009  -3.87054649
 H  -5.11508241   2.37716982  -3.78059388
 C  -2.54210526   2.43932264  -7.09752697
 H  -1.95744536   3.34751372  -7.25659368
 H  -3.34232760   2.41408529  -7.84486218
 H  -1.88055919   1.58928135  -7.28881187
 N  -1.68975860  -0.39442372  -4.94673721
 H  -1.47691234   0.50671094  -5.33286007
 C  -0.81993418  -0.85782701  -3.88682327
 H  -1.05463069  -1.91031307  -3.72460023
 C  -1.09999551  -0.09294612  -2.58944142
 C   0.65798166  -0.69669434  -4.25066186
 H   1.27308161  -1.14888415  -3.46919751
 H   0.92353381   0.35730828  -4.30586414
 H   0.87248964  -1.17019693  -5.20827812
 O  -1.57439790   1.02952436  -2.56458489
 N  -0.71712788  -0.75608347  -1.44750922
 H  -0.14989867  -1.57132534  -1.61608227
 C  -0.25229282   0.03172646  -0.31453766
 H  -0.89495586   0.90868025  -0.24380910
 C   1.19372599   0.47042095  -0.56150731
 C  -0.32965996  -0.76058674   0.99013194
 H   0.15219198  -0.18841717   1.78755073
 H   0.22026694  -1.69686639   0.87407798
 O   1.99525971  -0.25172433  -1.13896594
 C  -1.77653092  -1.02655915   1.39992271
 H  -2.32358593  -1.56031906   0.61839340
 H  -1.79632085  -1.65696495   2.29329457
 C  -2.49555115   0.27050764   1.74595804
 N  -3.85184145   0.23140947   1.61791450
 H  -4.34128933  -0.58401335   1.29837605
 H  -4.36383114   1.06611625   1.84110710
 O  -1.90690730   1.26277826   2.14099469
 N   1.51374012   1.69741678  -0.06805399
 H   0.92870966   2.11740726   0.63877914
 C   2.88574032   2.14814227  -0.05084528
 H   3.51376407   1.30539818  -0.34065324
 C   3.19478285   2.61173642   1.37639718
 C   3.12087280   3.30815285  -1.03033526
 H   4.15154686   3.65708596  -0.91493809
 H   2.46692008   4.13212255  -0.73257849
 O   2.31786359   2.98571165   2.13564157
 C   2.87620324   2.95107532  -2.46261562
 C   3.94353220   2.66674081  -3.33005708
 H   4.95738970   2.68225484  -2.94444200
 C   1.57292413   2.91970827  -2.98056136
 H   0.73535495   3.09421844  -2.31379268
 C   3.74899991   2.37752081  -4.66069965
 H   4.57520479   2.15294643  -5.32249379
 C   1.33448983   2.69775827  -4.31919840
 H   0.33406822   2.68707230  -4.72663230
 O   2.21233593   2.11633713  -6.42803046
 C   2.41442410   2.38034870  -5.23801561
 N   4.50341521   2.63696394   1.71154587
 H   5.23725964   2.36808036   1.07565292
 C   4.94047840   3.12370196   2.99965319
 H   4.40035839   4.04623141   3.22584372
 C   6.44156036   3.40509140   2.85960609
 C   4.65899726   2.11525798   4.11339531
 H   5.01172456   2.50067651   5.07236398
 H   3.58616664   1.93645932   4.16891320
 H   5.16317193   1.16753914   3.90869616
 O   7.10068151   2.92987332   1.95173892
 N   6.97023930   4.19793303   3.82606292
 H   6.41392836   4.45316683   4.62782093
 C   8.40121612   4.36503312   3.96195194
 H   8.89618319   3.55962920   3.41063502
 C   8.75672227   4.25161238   5.42814841
 C   8.90916577   5.70692517   3.41469025
 H   9.97358951   5.76605500   3.63835237
 H   8.42104321   6.52350054   3.95338715
 O   7.97467581   4.32520336   6.34258711
 C   8.67206295   5.84014024   1.91950190
 H   7.60695925   5.78860198   1.69648094
 H   9.13920639   4.99842510   1.41209025
 C   9.21458149   7.13700715   1.33296372
 H   8.69063819   7.99004679   1.76930369
 H   9.02039424   7.17828444   0.25703735
 N   10.64922042   7.38188855   1.57468093
 H   10.86247484   7.79752533   2.46971077
 N   11.32062033   5.67929752   0.13192441
 H   12.06668058   5.27789769  -0.41288706
 H   10.43637019   5.76484982  -0.34159754
 N   12.87203722   6.69942382   1.56635986
 H   13.61873172   6.29474954   1.02090582
 H   13.11508755   7.55808947   2.04213892
 C   11.61226058   6.59725311   1.07402222
 O   10.08155817   4.08226549   5.60628804
 H   10.21721423   4.04501617   6.56149632
