21
conf-474
 N  -4.63720790   3.03714618   2.52720833
 H  -4.54455536   3.63025617   1.69937654
 H  -5.29385118   2.28220701   2.30327315
 H  -5.02334039   3.59443895   3.28821624
 C  -3.34464554   2.41761192   2.90905920
 H  -2.56701541   3.18375952   2.92127853
 C  -3.00104113   1.35681749   1.87711893
 C  -3.43586877   1.78891785   4.30247905
 H  -3.45936360   2.60786817   5.02563070
 H  -4.38812636   1.25704448   4.37521641
 O  -3.82843478   0.51135146   1.54984353
 C  -2.30232604   0.81869574   4.64583430
 H  -2.43282621  -0.13836321   4.13757752
 H  -2.30219328   0.61647866   5.72269250
 C  -0.94362477   1.36307743   4.28458806
 O  -0.62506984   2.52508421   4.38094451
 O  -0.12495575   0.40426795   3.83589760
 N  -1.74357328   1.39480983   1.38095578
 H  -1.09706421   2.11132539   1.66226871
 C  -1.34741322   0.56813174   0.27489401
 H  -2.00650678  -0.30235270   0.27134903
 C   0.10417592   0.14758563   0.48047001
 C  -1.49766690   1.28662574  -1.08041202
 H  -1.09617200   0.63853742  -1.86412807
 H  -0.89618458   2.19983818  -1.06512142
 O   0.88513970   0.82588149   1.15189341
 C  -2.92783918   1.63425301  -1.38805471
 C  -3.50170441   2.87208248  -1.30528296
 H  -3.04946390   3.81620122  -1.03752753
 C  -3.97486643   0.72792389  -1.78297923
 C  -5.15727707   1.47515625  -1.90385533
 C  -4.00470722  -0.64893768  -2.03821858
 H  -3.10366646  -1.25119972  -1.95032409
 N  -4.84625798   2.78344198  -1.59889932
 H  -5.48074894   3.55668533  -1.65638785
 C  -6.37814196  -0.46215733  -2.52552420
 H  -7.30293260  -0.94588753  -2.81704838
 C  -6.37590774   0.90163185  -2.27232159
 H  -7.27556027   1.50048268  -2.35679678
 C  -5.20577421  -1.23042221  -2.41251171
 H  -5.24475000  -2.29294317  -2.61749221
 N   0.49171521  -0.98550286  -0.13497159
 H  -0.10119639  -1.42356808  -0.82115515
 C   1.87303072  -1.43839811  -0.09998076
 H   2.23452856  -1.29544836   0.91765362
 C   2.72174224  -0.59652815  -1.05516619
 C   1.93835198  -2.91393034  -0.50134037
 H   2.98927513  -3.17449962  -0.66239433
 O   3.01062951  -0.96672239  -2.18982309
 C   1.34339439  -3.82660979   0.54624316
 H   1.90338818  -3.75473626   1.48289005
 H   1.37541253  -4.85977550   0.19683973
 H   0.30370608  -3.56470960   0.74640348
 O   1.21370684  -3.09808877  -1.71128455
 H   1.73033868  -2.64172231  -2.38654225
 N   3.12516358   0.59681541  -0.57073326
 H   2.69864229   0.96781240   0.27115992
 C   3.82688496   1.51132948  -1.43311956
 H   4.60230205   0.96335923  -1.96985050
 C   4.47393677   2.58246594  -0.49722529
 C   2.91994255   2.24504670  -2.40286209
 H   2.11102824   2.69852844  -1.82294965
 H   2.47236270   1.53786295  -3.09687634
 O   5.69212972   2.50419358  -0.31807357
 C   3.71903664   3.33252505  -3.13058155
 H   4.60566492   3.58947412  -2.54991863
 H   4.08033611   2.93734103  -4.08344982
 C   2.90599255   4.59712430  -3.37257762
 H   3.48370693   5.31061990  -3.96994917
 H   1.99182088   4.37047782  -3.93040892
 N   2.56528222   5.19381880  -2.07108745
 H   2.97946813   4.76953325  -1.24407824
 N   1.43623528   6.98954996  -3.01507528
 H   0.73895339   7.70517079  -2.89193297
 H   1.40454940   6.49574364  -3.89201165
 N   1.69309787   6.83697950  -0.68537964
 H   1.81770434   6.21542750   0.10382785
 H   0.96999086   7.52984460  -0.57271007
 C   1.87862005   6.31973294  -1.92683594
 O   3.66178818   3.40755108  -0.02066353
 H   0.65611955   0.83936260   3.46536070
