21
conf-796
 N  -5.65420449   3.76993523   1.95856449
 H  -5.73759587   4.01183825   0.96760874
 H  -6.23286244   2.94253115   2.11965658
 H  -6.01573769   4.53677242   2.52181260
 C  -4.25166016   3.46581882   2.28832542
 H  -3.61120099   4.21559787   1.80893892
 C  -3.88615132   2.10018963   1.69969393
 C  -4.00156525   3.51382918   3.79552905
 H  -2.96467056   3.24615201   3.99733682
 H  -4.12418056   4.54746435   4.12477393
 O  -4.72194646   1.20537400   1.55204879
 C  -4.92735715   2.61412189   4.60096251
 H  -4.87719419   1.58366365   4.24600902
 H  -5.96947276   2.92584597   4.49208370
 C  -4.58599781   2.61834888   6.06838263
 O  -3.60238159   3.10443277   6.56592156
 O  -5.52758923   1.97753411   6.80027512
 N  -2.57748403   1.94150297   1.39139071
 H  -1.89363794   2.67352160   1.50921685
 C  -2.07038750   0.75928949   0.73738037
 H  -2.31956208  -0.12324135   1.33496906
 C  -0.54931167   0.94879582   0.67657423
 C  -2.66232762   0.54861768  -0.67570625
 H  -3.71113511   0.29205146  -0.55865042
 H  -2.14988517  -0.30224919  -1.13610506
 O  -0.01806657   1.99851539   0.99405720
 C  -2.52881523   1.76058699  -1.55085234
 C  -1.41419409   2.15965891  -2.23249138
 H  -0.46093869   1.66539490  -2.28388795
 C  -3.53595611   2.75981688  -1.82314420
 C  -2.95376958   3.73622072  -2.64907841
 C  -4.88178790   2.89543889  -1.45014390
 H  -5.35576059   2.15028734  -0.82133518
 N  -1.65207528   3.34609943  -2.88290615
 H  -0.99006863   3.83676416  -3.45164769
 C  -4.97695609   4.97677584  -2.69954721
 H  -5.55730526   5.83279748  -3.02142307
 C  -3.65315420   4.86029879  -3.09567824
 H  -3.17854091   5.60455034  -3.72508510
 C  -5.58197861   4.00199180  -1.88850971
 H  -6.61910823   4.12387810  -1.60113109
 N   0.14960294  -0.12189180   0.21682825
 H  -0.33325732  -0.95846714  -0.06525552
 C   1.55518235  -0.03386982  -0.07184049
 H   1.92257588   0.87617127   0.39475539
 C   1.76543976   0.04961474  -1.58920115
 C   2.33026727  -1.26144216   0.44549839
 H   3.37536989  -1.16119924   0.11489648
 O   0.90304596  -0.33132838  -2.40798886
 C   2.29880166  -1.42334026   1.94673810
 H   2.77153046  -0.56924391   2.43931656
 H   2.83535416  -2.33133479   2.22512719
 H   1.27484191  -1.50955361   2.30971214
 O   1.74962243  -2.42485726  -0.13758487
 H   1.78510127  -2.31028731  -1.09795652
 N   3.01316888   0.51351863  -1.93286484
 H   3.74898426   0.44222826  -1.24083927
 C   3.57481378   0.23261159  -3.22833231
 H   3.10390650  -0.66798729  -3.64325491
 C   5.07135673  -0.09963305  -2.96102391
 C   3.47031924   1.37547741  -4.22792376
 H   4.12377408   1.12886257  -5.06904469
 H   3.85582864   2.29142282  -3.77148253
 O   5.77876056  -0.34570424  -3.93851538
 C   2.04440029   1.60403060  -4.71292906
 H   1.41162385   1.85086783  -3.85047791
 H   2.01468783   2.45859812  -5.38885908
 C   1.43732707   0.38191460  -5.38256845
 H   1.34829431  -0.40376319  -4.63915578
 H   0.42798134   0.61467240  -5.74535071
 N   2.28866246  -0.07138858  -6.50352572
 H   2.71758636   0.66864142  -7.04032501
 N   1.17349393  -2.10982194  -6.69088276
 H   0.77817188  -2.78068572  -7.33249582
 H   0.55798788  -1.80073858  -5.95351155
 N   2.67736898  -1.42505929  -8.36024823
 H   3.54064181  -0.91088564  -8.49199791
 H   2.75143286  -2.39797317  -8.62687951
 C   2.03559135  -1.19589090  -7.18363809
 O   5.37946180  -0.11559686  -1.74813170
 H  -5.22229392   2.01458188   7.71654898
