21
conf-746
 N  -5.56747840   3.68346064   1.35803088
 H  -5.46769696   4.11049776   0.43481563
 H  -6.12565364   2.83259579   1.25461981
 H  -6.06264206   4.33108407   1.96784899
 C  -4.25495263   3.30361952   1.92622638
 H  -3.56689641   4.14667742   1.85666002
 C  -3.70429192   2.12842444   1.13472216
 C  -4.40731938   2.90563506   3.39201678
 H  -4.82362550   3.76454978   3.92518889
 H  -5.14080369   2.09607234   3.43985289
 O  -4.40887351   1.15802360   0.85971484
 C  -3.12184085   2.45562249   4.07951558
 H  -2.68508878   1.58305925   3.58428281
 H  -3.34194028   2.14523637   5.10545340
 C  -2.08132427   3.53555405   4.17479271
 O  -2.26247482   4.71561344   3.98939486
 O  -0.87884302   3.03804302   4.53351750
 N  -2.39842342   2.19037457   0.79493260
 H  -1.83766560   3.01734140   0.93808899
 C  -1.80073578   1.11125948   0.04099948
 H  -2.15486349   0.16763705   0.45903272
 C  -0.29170344   1.20105347   0.22118145
 C  -2.21157013   1.15496116  -1.44872738
 H  -1.91055774   2.10869205  -1.88535949
 H  -3.29703832   1.08072274  -1.48999780
 O   0.28401490   2.28455593   0.27275359
 C  -1.55736083   0.03614840  -2.19810906
 C  -0.54840772   0.13756236  -3.10554792
 H  -0.13866649   1.01685936  -3.57395554
 C  -1.69266036  -1.36510971  -1.90138600
 C  -0.69594273  -2.04765274  -2.61521553
 C  -2.53787140  -2.05506382  -1.02362082
 H  -3.30302722  -1.51464523  -0.46993094
 N  -0.03043058  -1.11434930  -3.38878443
 H   0.87095295  -1.26604341  -3.81038562
 C  -1.34637964  -4.09072643  -1.59234654
 H  -1.22315693  -5.15734250  -1.45552720
 C  -0.49775651  -3.41777212  -2.47159671
 H   0.28776756  -3.93524678  -3.01104352
 C  -2.35602801  -3.42111883  -0.88431150
 H  -2.99481033  -3.98226321  -0.21507745
 N   0.36519374   0.02126660   0.28904821
 H  -0.11850327  -0.84023759   0.06407220
 C   1.81491169  -0.04540025   0.29576840
 H   2.16658661   0.74943557   0.95507935
 C   2.37018363   0.19311286  -1.10848215
 C   2.28227254  -1.40957549   0.79968202
 H   3.37046813  -1.45316222   0.68806512
 O   2.73701355  -0.71175972  -1.86093129
 C   1.90972408  -1.66167221   2.24348252
 H   2.37005626  -0.91961314   2.90235622
 H   2.24928633  -2.65555811   2.53998146
 H   0.82766882  -1.61776258   2.37328399
 O   1.67961782  -2.43100592   0.01207104
 H   2.01597215  -2.27953263  -0.88199384
 N   2.44399162   1.47530647  -1.50678296
 H   1.96073785   2.20455604  -0.99489538
 C   3.03289909   1.71692710  -2.80783893
 H   2.45192453   1.19141384  -3.57320817
 C   4.44166614   1.15385926  -2.80665629
 C   3.05707682   3.21771254  -3.09403614
 H   3.56790906   3.69580375  -2.25442355
 H   2.02379707   3.58277797  -3.08727916
 O   5.22695067   1.23539841  -1.89933341
 C   3.75334437   3.62760178  -4.38908365
 H   3.72897570   4.71998717  -4.45863814
 H   4.81027659   3.34320365  -4.35600564
 C   3.12254819   3.04772545  -5.65772563
 H   3.65689899   3.42709131  -6.53108613
 H   3.22347905   1.96517618  -5.67940397
 N   1.70019262   3.35928067  -5.81689290
 H   1.11598176   2.72864201  -5.28989926
 N   2.04877740   5.59762659  -6.37136666
 H   1.60545167   6.50380177  -6.39968423
 H   2.39458538   5.28112327  -7.26485660
 N   0.26555782   5.07962874  -4.99313270
 H  -0.16134826   4.28720810  -4.51770223
 C   1.26349739   4.68007098  -5.69224882
 O   4.74863120   0.59395313  -4.00173135
 H  -0.28581918   3.79955832   4.59410174
 H   5.65493864   0.27602474  -3.91772242
