21
conf-553
 N  -4.64544315  -1.75433519   1.42003313
 H  -5.44618000  -1.35607612   0.92555004
 H  -4.05608864  -2.22652484   0.72922843
 H  -4.96342383  -2.43511756   2.10591680
 C  -3.81507875  -0.70118330   2.03733036
 H  -4.45088602   0.13509793   2.34992558
 C  -2.83598858  -0.21704564   0.97423484
 C  -3.05984323  -1.22860089   3.25539863
 H  -2.49212836  -0.41807627   3.71285159
 H  -3.79831498  -1.54552264   3.99425912
 O  -2.47545469  -0.96484010   0.06456739
 C  -2.11671092  -2.38236732   2.94050413
 H  -1.34197685  -2.06294729   2.23546207
 H  -2.64414445  -3.21256067   2.47050992
 C  -1.40214650  -2.88210988   4.16223912
 O  -1.07039159  -2.20031693   5.10191780
 O  -1.11080576  -4.19604754   4.08378507
 N  -2.33162476   1.02056772   1.13948174
 H  -2.72313725   1.60048928   1.86174047
 C  -1.59491653   1.67927003   0.07241741
 H  -1.85751583   1.13730890  -0.84495736
 C  -0.09084845   1.51872125   0.29080612
 C  -2.00752624   3.15580087  -0.06136540
 H  -1.42040834   3.59917294  -0.86578976
 H  -1.75187670   3.69137078   0.85319594
 O   0.70528594   2.45747092   0.23403227
 C  -3.47117369   3.25957828  -0.37321117
 C  -4.01625053   3.30566105  -1.62606323
 H  -3.52973076   3.37313094  -2.58703712
 C  -4.57796972   3.18594002   0.55283031
 C  -5.75767230   3.14169486  -0.21434961
 C  -4.67805117   3.14831029   1.95301859
 H  -3.79286341   3.23536135   2.57630605
 N  -5.39025771   3.23042736  -1.53710380
 H  -6.02236191   3.24346866  -2.31416411
 C  -7.08869320   2.92900750   1.74061831
 H  -8.04948131   2.81743502   2.22799298
 C  -7.02493931   3.00415939   0.35780051
 H  -7.91660383   2.95718936  -0.25680472
 C  -5.92690746   3.00844435   2.52951945
 H  -6.01468605   2.95963985   3.60717804
 N   0.31510624   0.26003322   0.55869953
 H  -0.33218169  -0.51111824   0.45159833
 C   1.70977606  -0.04119585   0.77862313
 H   2.14339070   0.83178260   1.27175814
 C   2.41439542  -0.25445857  -0.56170927
 C   1.86303574  -1.26935703   1.67358896
 H   2.91472481  -1.56392137   1.66223510
 O   2.76721634  -1.36580569  -0.95057085
 C   1.41247407  -1.00637421   3.09035214
 H   1.98504399  -0.19060132   3.53455834
 H   1.54348967  -1.89974719   3.70150743
 H   0.35582453  -0.73496302   3.11318555
 O   1.06710287  -2.33480553   1.16546742
 H   1.46525991  -2.57831148   0.32182742
 N   2.58513013   0.86130024  -1.30527655
 H   2.26995140   1.76216353  -0.96133421
 C   3.34723037   0.80870481  -2.52975922
 H   3.90899425  -0.13095500  -2.52742997
 C   4.33182863   1.95803457  -2.56777456
 C   2.47476352   0.83605093  -3.79107909
 H   3.14163491   0.83160277  -4.65369576
 H   1.90753785   1.76710451  -3.82683118
 O   4.29715124   2.93584768  -1.86881867
 C   1.53759666  -0.36076369  -3.87319455
 H   2.10253930  -1.27643580  -3.68411312
 H   0.77327759  -0.29765953  -3.09790313
 C   0.84825193  -0.45568556  -5.22353201
 H   1.59648238  -0.47248668  -6.01724870
 H   0.27529538  -1.38906892  -5.28436062
 N  -0.01390790   0.69600212  -5.42360899
 H  -0.54560327   0.97115741  -4.61621492
 N  -0.12516733   0.31139773  -7.73308215
 H  -0.70890091   0.47578792  -8.53948276
 H   0.11066999  -0.65923337  -7.60451798
 N  -1.59153976   1.82204971  -6.78988456
 H  -1.81921912   2.27487211  -5.90979372
 C  -0.65138877   0.96616334  -6.62333888
 O   5.26700203   1.76817947  -3.52121905
 H  -0.63178706  -4.41983835   4.89382865
 H   5.83666928   2.54699638  -3.49391655
