21
conf-231
 N  -4.74750523   0.39489751   3.23737115
 H  -5.03629124   1.24484393   2.74835351
 H  -4.88013454  -0.40427720   2.61132041
 H  -5.35302395   0.27069242   4.05083079
 C  -3.31556851   0.45805344   3.63509925
 H  -3.14783344   1.39401789   4.17826543
 C  -2.48834297   0.48415226   2.35811390
 C  -2.90108088  -0.71521287   4.50411069
 H  -3.14711480  -1.63761098   3.97996836
 H  -1.81738820  -0.70236207   4.62260123
 O  -2.34879493  -0.52390423   1.65426996
 C  -3.55537961  -0.67826275   5.88163558
 H  -4.64250858  -0.76113476   5.82773493
 H  -3.32205280   0.27140402   6.37317905
 C  -3.07584919  -1.78082449   6.78123930
 O  -3.77839702  -2.51746697   7.42495072
 O  -1.72366136  -1.85308796   6.82266242
 N  -2.00725319   1.69659135   2.01158346
 H  -2.02302623   2.45835925   2.66913396
 C  -1.39025602   1.92613561   0.71633396
 H  -1.75489787   1.11652071   0.07786927
 C   0.12432930   1.80840996   0.87501383
 C  -1.81150065   3.28341888   0.16153264
 H  -1.23869214   3.49318833  -0.74442674
 H  -1.55332773   4.05076103   0.89049030
 O   0.86715549   2.79183505   0.90430539
 C  -3.28347631   3.30002923  -0.12740048
 C  -4.28800140   3.55307330   0.76446725
 H  -4.22813033   3.80234369   1.81356792
 C  -3.92350600   2.98480003  -1.38067720
 C  -5.31026644   3.07406324  -1.17837325
 C  -3.43126833   2.63434236  -2.64436662
 H  -2.36517065   2.55119096  -2.83005968
 N  -5.50966867   3.42336280   0.13760685
 H  -6.40244511   3.58043580   0.56495548
 C  -5.72480050   2.48177941  -3.43837933
 H  -6.40634982   2.28106277  -4.25637568
 C  -6.23548106   2.82671361  -2.19568536
 H  -7.30216248   2.90206735  -2.01631142
 C  -4.33838698   2.38560828  -3.66009275
 H  -3.97892974   2.10987562  -4.64474263
 N   0.58969834   0.54868496   1.02405394
 H  -0.08090210  -0.20090297   1.14441176
 C   1.97960206   0.29973668   1.36380069
 H   2.30654795   1.12215321   2.00816402
 C   2.79902654   0.29401796   0.06932795
 C   2.11190527  -1.00868264   2.13812343
 H   1.80942362  -1.83162126   1.47667934
 O   3.16108065  -0.72881015  -0.49774789
 C   3.51563017  -1.23458780   2.66765335
 H   4.23279167  -1.30887328   1.85142193
 H   3.54879983  -2.15506950   3.25354729
 H   3.79093521  -0.39765431   3.31207931
 O   1.20789586  -0.89995768   3.24362686
 H   1.21813319  -1.73866273   3.71255025
 N   3.06696637   1.52930679  -0.42321658
 H   2.63811545   2.33686064   0.00875287
 C   3.76863829   1.67693254  -1.67282741
 H   4.28308774   0.72619806  -1.83875141
 C   4.84722222   2.73948567  -1.61025680
 C   2.82477876   1.91481684  -2.85612512
 H   2.16524815   1.04608829  -2.93091422
 H   3.43825072   1.93204291  -3.75947785
 O   5.29277841   3.30487963  -2.57727535
 C   2.00583238   3.19331255  -2.76956363
 H   1.35905194   3.17831124  -1.89477006
 H   2.67637678   4.04896479  -2.66406311
 C   1.14968845   3.37787842  -4.01134472
 H   1.78485193   3.36843193  -4.90765453
 H   0.45148528   2.54099999  -4.10125524
 N   0.38169512   4.61218227  -3.92801274
 H   0.91752734   5.39534449  -3.59292267
 N  -0.96545533   6.25751390  -4.81810337
 H  -1.69863395   6.43494273  -5.49034792
 H  -1.25317526   6.46080953  -3.87320320
 N  -0.72543123   4.29573555  -6.03983689
 H  -0.21924702   3.41548850  -6.03132975
 C  -0.44804454   4.97571920  -4.99088198
 O   5.29801083   2.96388792  -0.36330189
 H  -1.51205737  -2.56815428   7.43540435
 H   6.00210258   3.62113280  -0.44719525
