21
conf-828
 N  -1.79603292  -3.91562885   2.82815997
 H  -1.30349615  -4.45811353   2.12130843
 H  -1.66635885  -4.38390576   3.71795859
 C  -1.20441983  -2.59284504   2.86421169
 H  -1.94263450  -1.89258132   3.27907020
 C  -0.88169735  -2.16778707   1.42899124
 C   0.05363896  -2.47040055   3.75945840
 H   0.38301910  -1.43002987   3.73256408
 H  -0.23755254  -2.69403897   4.79038683
 O  -0.66424791  -2.99291770   0.55351174
 C   1.20316929  -3.36680516   3.36219023
 C   2.10305032  -3.12867186   2.39766564
 H   2.19978938  -2.29950712   1.72574611
 C   1.53658274  -4.65866713   3.91955514
 C   2.62263697  -5.16708926   3.21904185
 C   0.97722656  -5.40295356   4.96715483
 H   0.13789421  -5.01986616   5.53703805
 N   3.02146624  -4.22233506   2.19543936
 H   2.93963627  -4.60784678   1.24959440
 C   2.60238761  -7.14401499   4.54640974
 H   3.01124147  -8.11556339   4.79364382
 C   3.16991582  -6.40567208   3.50809206
 H   4.01388307  -6.78843295   2.94443732
 C   1.51522866  -6.64199184   5.27159948
 H   1.09029964  -7.22759438   6.07770986
 N  -0.85550198  -0.82176238   1.22994306
 H  -0.91081545  -0.24792625   2.05062963
 C  -0.38206458  -0.14368164   0.01352142
 H  -0.80999410   0.86290204   0.06112513
 C   1.12808556   0.00020215   0.12907691
 C  -0.84739662  -0.76531140  -1.30544345
 H  -0.36462453  -1.73322119  -1.42341089
 O   1.90759978  -0.93394459  -0.04419419
 C  -0.49578952   0.10472051  -2.52129351
 H  -1.03126274  -0.32838089  -3.37429448
 H  -0.92303930   1.10029681  -2.36834914
 C  -2.36826396  -0.93962812  -1.29410216
 H  -2.85840933   0.03364217  -1.20328084
 H  -2.69334481  -1.40171498  -2.22855035
 H  -2.70276224  -1.57287910  -0.47644232
 C   0.97908132   0.20527247  -2.88736790
 H   1.08982059   0.56900649  -3.91073884
 H   1.46920192  -0.76808906  -2.81941812
 H   1.51814640   0.89907770  -2.24251177
 N   1.56972353   1.24622126   0.43810917
 H   0.88806702   1.89664155   0.78949286
 C   2.90689207   1.39292420   0.99140631
 H   3.58120017   0.78012432   0.38542970
 C   2.93835385   0.82385925   2.39945059
 C   3.35125161   2.85200562   0.96785360
 H   2.61446292   3.45160203   1.50490997
 H   4.28851254   2.94260221   1.51123201
 O   1.97539905   0.40358373   2.98717816
 C   3.52635972   3.37362051  -0.44924666
 H   2.59216078   3.26816266  -1.00777622
 H   4.27576142   2.77195711  -0.97177908
 C   3.94432886   4.82968067  -0.48042509
 H   3.91579775   5.21966347  -1.50628920
 H   3.23980081   5.42220696   0.10835384
 N   5.26961265   4.99943045   0.10013380
 H   5.96740473   4.39232999  -0.29977732
 N   7.11009156   6.26168686   0.66985247
 H   7.40803775   7.17705024   0.97666339
 H   7.34087883   5.53969790   1.33491937
 N   5.15738329   7.40108493   0.14249649
 H   4.21453209   7.24772615  -0.19715699
 C   5.76883072   6.28776701   0.29427035
 O   4.17487184   0.84540817   2.92596952
 H   4.00215989  -3.93272935   2.27036590
 H   4.09848309   0.47623394   3.81469741
