21
conf-197
 N  -2.85743016  -3.76877549   1.92379529
 H  -3.61883228  -3.61800562   1.27251064
 H  -2.25650810  -4.44494794   1.46840771
 C  -2.10868653  -2.53755865   2.09635427
 H  -2.76496591  -1.80903627   2.58868666
 C  -1.62798876  -1.93745013   0.76796550
 C  -0.91065707  -2.78123018   3.02919865
 H  -0.38381250  -1.83597391   3.20166217
 H  -1.29838193  -3.12710585   3.98918350
 O  -1.61921156  -2.58309771  -0.26999607
 C   0.05274008  -3.80753732   2.48118662
 C   1.03570070  -3.60135084   1.59594506
 H   1.32182847  -2.72098365   1.05815976
 C   0.06572778  -5.22087505   2.78275651
 C   1.10471809  -5.80894505   2.07538663
 C  -0.76168453  -6.00250215   3.59417427
 H  -1.60739024  -5.55295789   4.10411274
 N   1.76506043  -4.80282894   1.26546231
 H   1.71210576  -5.00373935   0.26246511
 C   0.56537672  -7.93484682   3.00470859
 H   0.76114024  -8.99545636   3.10044775
 C   1.37802083  -7.16338572   2.17375967
 H   2.19769333  -7.61023753   1.62216275
 C  -0.50032058  -7.36010422   3.70722156
 H  -1.12631485  -7.97841097   4.33834943
 N  -1.22614206  -0.63952169   0.86202617
 H  -1.24187488  -0.22462601   1.77467638
 C  -0.56966387   0.15102909  -0.17960605
 H  -0.71753300   1.19554223   0.11051533
 C   0.93559434  -0.10563998  -0.14476032
 C  -1.14000007  -0.00609992  -1.59142058
 H  -1.10322104  -1.05513843  -1.86118749
 O   1.45120626  -1.14215637  -0.57644151
 C  -0.28786864   0.73456475  -2.63608502
 H   0.69822237   0.25182387  -2.68891404
 H  -0.75267877   0.56709380  -3.61450038
 C  -2.59288078   0.46698645  -1.62345880
 H  -2.66089960   1.52487059  -1.35918453
 H  -3.01286228   0.33854976  -2.62417904
 H  -3.21044528  -0.09629931  -0.92262070
 C  -0.10759335   2.23572761  -2.42432722
 H   0.57582612   2.63172276  -3.17452207
 H   0.31662041   2.46363883  -1.44175098
 H  -1.05758710   2.77133327  -2.50614524
 N   1.67188613   0.88775471   0.40322524
 H   1.22769437   1.75053631   0.66914699
 C   3.12308213   0.85801674   0.34920183
 H   3.41488778  -0.18979974   0.27054237
 C   3.72250784   1.42281884   1.61808181
 C   3.65848314   1.61770691  -0.87691874
 H   3.09359070   1.26762584  -1.74418068
 H   3.44626947   2.68177068  -0.76284170
 O   4.69628059   0.99128559   2.18001470
 C   5.14368443   1.39733269  -1.11859701
 H   5.31987193   0.32719632  -1.26936387
 H   5.72188282   1.68106908  -0.23398471
 C   5.67557012   2.18272753  -2.31624039
 H   5.54905855   3.25150938  -2.13413303
 H   6.74658258   1.99038730  -2.43057734
 N   5.01671259   1.86209576  -3.58909317
 H   4.80326356   0.87605827  -3.65574749
 N   4.15861315   3.99714318  -3.98723079
 H   3.42722626   4.49978143  -4.46831199
 H   5.09139685   4.27001461  -4.25902763
 N   2.78754056   2.17936824  -4.36970215
 H   2.77679769   1.16422267  -4.28022971
 C   3.93458120   2.63242468  -4.01010657
 O   3.06216679   2.52393053   2.04143975
 H   2.76900659  -4.71781043   1.45834684
 H   3.51907289   2.83426651   2.83359159
