21
conf-617
 N  -0.45555442  -4.29196123   2.16844719
 H  -1.13037625  -4.82415176   1.63159867
 H   0.44792497  -4.57939140   1.80417701
 C  -0.61917175  -2.87723732   1.88391025
 H  -1.65878182  -2.59693300   2.09891976
 C  -0.30998719  -2.53295373   0.42022335
 C   0.27905336  -2.04354030   2.81298972
 H   1.29337845  -2.44695697   2.74546849
 H   0.31260124  -1.00706942   2.46046518
 O   0.40010971  -3.23443874  -0.27865117
 C  -0.19470704  -2.05239865   4.24868271
 C   0.33504134  -2.75051899   5.25890431
 H   1.18989014  -3.40715222   5.25407525
 C  -1.32791833  -1.33154423   4.78142120
 C  -1.44688495  -1.65694726   6.12625626
 C  -2.23904903  -0.43629850   4.20030651
 H  -2.15328216  -0.14930388   3.15705822
 N  -0.38910546  -2.57614410   6.50204327
 H  -0.74793624  -3.46525474   6.86588840
 C  -3.36439998  -0.25851119   6.33522966
 H  -4.16238948   0.16014042   6.93533606
 C  -2.45683766  -1.14093509   6.92189939
 H  -2.53678398  -1.41439172   7.96831808
 C  -3.25067406   0.09373080   4.98616299
 H  -3.96158497   0.78554992   4.55026470
 N  -0.85792767  -1.37016030  -0.02237564
 H  -1.52644632  -0.89891299   0.56284949
 C  -0.71339032  -0.92197191  -1.40148018
 H  -1.15542321   0.07980383  -1.40906396
 C   0.78650739  -0.79869786  -1.74630401
 C  -1.46241644  -1.78103514  -2.45426249
 H  -0.81678231  -2.63231221  -2.68313881
 O   1.29516453  -1.28775524  -2.74644195
 C  -1.66609699  -0.93748718  -3.72219694
 H  -2.45798712  -0.21222844  -3.51172808
 H  -0.76086434  -0.35356508  -3.91708610
 C  -2.80719594  -2.28977938  -1.93914035
 H  -3.42548576  -1.45810665  -1.58610299
 H  -3.35665353  -2.78677766  -2.73987597
 H  -2.69314596  -3.01175485  -1.12922402
 C  -2.01361567  -1.76004534  -4.95687805
 H  -2.15951940  -1.11344338  -5.82356488
 H  -2.92382574  -2.34497070  -4.81931574
 H  -1.20563691  -2.45908773  -5.19294731
 N   1.51364584  -0.08652023  -0.85019696
 H   1.12415409   0.14641283   0.04357815
 C   2.94703985   0.02825350  -1.00609737
 H   3.34475316  -0.93205853  -1.34685440
 C   3.63916231   0.33810229   0.30443570
 C   3.36200865   1.07377498  -2.05702342
 H   4.45203627   1.03956370  -2.12655824
 H   2.96907768   0.74328813  -3.01795351
 O   4.83241325   0.28595951   0.45658441
 C   2.90614994   2.49482472  -1.76248825
 H   3.33131516   2.84210245  -0.81992378
 H   1.82386920   2.53115092  -1.65845238
 C   3.33779581   3.45424982  -2.86764446
 H   4.42034185   3.40876033  -2.99632931
 H   2.88432442   3.14934838  -3.81425342
 N   2.94926961   4.84080893  -2.63360293
 H   1.95746166   4.97889205  -2.75259325
 N   4.72284285   5.21633531  -1.15258362
 H   5.05780207   5.86237046  -0.45329093
 H   5.36266748   5.09207863  -1.92226015
 N   2.74660185   6.35451134  -0.80491240
 H   1.79943510   6.44793590  -1.16216760
 C   3.41686390   5.52228162  -1.51001534
 O   2.79314245   0.71069209   1.29211706
 H   0.20998845  -2.21015989   7.24973312
 H   3.33601026   0.89705924   2.06832208
