21
conf-102
 N  -1.75559512  -3.52179189   2.44519307
 H  -2.64841807  -3.31670464   2.01248583
 H  -1.35534435  -4.28894167   1.91632142
 C  -0.86823572  -2.37023078   2.35619146
 H  -1.33722934  -1.53408250   2.89031475
 C  -0.60028947  -1.93852995   0.91196474
 C   0.44301574  -2.70776700   3.08255877
 H   1.08732612  -1.83472192   3.10845140
 H   0.17698044  -2.96611917   4.11143904
 O  -0.42337039  -2.75529446   0.01699022
 C   1.17564121  -3.85738673   2.44085425
 C   0.96516190  -5.15384880   2.69546136
 H   0.29571393  -5.60398094   3.40582468
 C   2.12842299  -3.79292930   1.36539982
 C   2.45654824  -5.09243348   0.99657309
 C   2.67486238  -2.71095823   0.67068107
 H   2.39310090  -1.69701765   0.94921396
 N   1.73734785  -6.02909761   1.84175885
 H   2.35859555  -6.64846748   2.37392766
 C   3.87153336  -4.27690739  -0.73844069
 H   4.55167281  -4.46008538  -1.56304067
 C   3.33486062  -5.36224556  -0.04125453
 H   3.59012148  -6.38209724  -0.30450907
 C   3.52227250  -2.96873295  -0.39542225
 H   3.93486111  -2.14723353  -0.96608077
 N  -0.60970792  -0.59130468   0.72587984
 H  -0.71510553  -0.02121851   1.54423720
 C  -0.36554117   0.11915983  -0.53469094
 H  -0.69513892   1.14372424  -0.35893817
 C   1.17733730   0.22710119  -0.70969904
 C  -1.15129045  -0.41418396  -1.74427281
 H  -0.82460627  -1.43828410  -1.91885859
 O   1.88137814  -0.66524030  -1.21140531
 C  -0.84266337   0.42425705  -2.99171911
 H  -1.04660105   1.47406825  -2.75898382
 H   0.22985045   0.35697764  -3.20541256
 C  -2.65307777  -0.39071958  -1.44762299
 H  -3.00382830   0.64290278  -1.35935868
 H  -3.20755092  -0.87394270  -2.25434847
 H  -2.89651536  -0.91522495  -0.52405705
 C  -1.62572632   0.01247285  -4.23446614
 H  -1.24406748   0.53212589  -5.11517796
 H  -2.68515914   0.25480395  -4.14201184
 H  -1.54144729  -1.06269521  -4.41879549
 N   1.72724438   1.38132284  -0.20469941
 H   1.11949325   1.88459451   0.41659140
 C   3.10215261   1.33972456   0.27732932
 H   3.67556069   0.59003522  -0.27387048
 C   3.09281690   0.81666597   1.70752893
 C   3.80570362   2.67420674   0.09250516
 H   3.36161510   3.44082144   0.72958086
 H   4.83770257   2.54107953   0.42203545
 O   2.13439318   0.25738284   2.21826595
 C   3.76241582   3.10124149  -1.37634742
 H   4.51536144   3.86787746  -1.57502693
 H   2.78823745   3.55247286  -1.60151889
 C   3.94979080   1.92576112  -2.32222065
 H   3.16171433   1.19031360  -2.14422417
 H   3.85747817   2.24719148  -3.36490358
 N   5.23122902   1.27485335  -2.09739119
 H   6.03120291   1.86002389  -2.27742764
 N   6.77865481  -0.39190672  -2.42326845
 H   6.89588337  -1.38445891  -2.56659739
 H   7.24591471  -0.06459008  -1.59242804
 N   4.58473935  -0.89325764  -2.94300505
 H   3.64782071  -0.50885072  -3.06009211
 C   5.43450386  -0.03723149  -2.50824754
 O   4.27738454   0.98703155   2.33721292
 H   1.13228865  -6.66221921   1.30927915
 H   4.10965685   0.60864673   3.20902130
