21
conf-950
 N  -2.68530577  -3.06323152   2.57852499
 H  -3.02163418  -3.38415464   3.47884761
 H  -3.32843187  -2.34574561   2.26654761
 C  -1.33600845  -2.52161713   2.72244029
 H  -1.28847737  -1.66092454   3.41336587
 C  -0.86339627  -2.07235817   1.33867437
 C  -0.41633644  -3.62900566   3.23007141
 H  -0.85573855  -4.04787097   4.13576104
 H  -0.41760750  -4.42048918   2.47880482
 O  -0.67338381  -2.86968583   0.42769953
 C   0.99234528  -3.16318854   3.50002239
 C   1.90793290  -2.83773443   2.58315272
 H   1.84073615  -2.80912027   1.51559114
 C   1.62483128  -2.97574941   4.78701362
 C   2.92138232  -2.53019658   4.57139944
 C   1.16327784  -3.17192725   6.09455013
 H   0.15188164  -3.51202437   6.27837873
 N   3.14929834  -2.37441683   3.14886606
 H   3.96035186  -2.90313360   2.80764003
 C   3.33199608  -2.48526654   6.91522839
 H   3.99642690  -2.29791502   7.74887039
 C   3.79510005  -2.28236064   5.61375595
 H   4.80909747  -1.93961759   5.42884289
 C   2.02432212  -2.92391300   7.15109154
 H   1.68267959  -3.07342734   8.16878826
 N  -0.72933056  -0.72872286   1.20399389
 H  -0.84660170  -0.17066964   2.02969562
 C  -0.17876939  -0.02256841   0.04353568
 H  -0.52833178   1.00905578   0.15156073
 C   1.34949486   0.00207488   0.17657399
 C  -0.65704318  -0.51830070  -1.32375286
 H  -0.23637468  -1.50743475  -1.49798122
 O   2.06750050  -0.98518157  -0.02589115
 C  -0.21125030   0.40184118  -2.47235230
 H  -0.76588642   0.07411477  -3.35915163
 H  -0.55684480   1.41785368  -2.25523998
 C  -2.18719594  -0.58696877  -1.36762078
 H  -2.61704311   0.40954872  -1.23354152
 H  -2.51030282  -0.97452334  -2.33550559
 H  -2.58712811  -1.24385178  -0.59867281
 C   1.27370745   0.40281816  -2.81681748
 H   1.42579611   0.76259481  -3.83601801
 H   1.69361912  -0.60180155  -2.74306269
 H   1.85371106   1.05334140  -2.16413924
 N   1.84967291   1.21608404   0.50891483
 H   1.22217643   1.97721748   0.69497424
 C   3.27083764   1.45231738   0.69712269
 H   3.76453708   0.54572946   0.34775652
 C   3.58376289   1.57310951   2.17245457
 C   3.77181737   2.64358712  -0.11513725
 H   4.80741902   2.82362245   0.17575455
 H   3.78323149   2.33410111  -1.16600631
 O   3.99225072   2.54691612   2.75098006
 C   2.95193892   3.91454147   0.02629040
 H   2.86356838   4.18432118   1.07935260
 H   1.93879871   3.75085808  -0.35683216
 C   3.54359211   5.08595623  -0.75675071
 H   3.60605870   4.83400447  -1.81786312
 H   2.86994714   5.94600949  -0.66964327
 N   4.86664486   5.47665199  -0.28474398
 H   4.87711083   6.18947504   0.42413011
 N   5.96650155   4.62426972  -2.17408221
 H   6.88417912   4.54672038  -2.58513591
 H   5.51638293   3.73491617  -2.01693787
 N   7.04563452   6.20315466  -0.88744398
 H   6.91908442   6.80780321  -0.08040101
 C   6.00447443   5.48345087  -1.07720112
 O   3.33863785   0.40606863   2.81672784
 H   3.32903449  -1.39080898   2.88874161
 H   3.47337706   0.59675855   3.76038919
