21
conf-549
 N  -2.47887082  -2.36467484   2.85065204
 H  -2.75228466  -2.56335122   3.80686872
 H  -2.94323230  -1.49923790   2.60025457
 C  -1.02813118  -2.21209244   2.78150134
 H  -0.66320385  -1.35022965   3.36675748
 C  -0.65395355  -1.99925441   1.31027760
 C  -0.38322010  -3.48141555   3.32828438
 H  -0.84766500  -3.68903293   4.29686164
 H  -0.63529091  -4.30373343   2.65818383
 O  -0.47597315  -2.93537983   0.53943077
 C   1.11027815  -3.36954532   3.49019734
 C   2.04285468  -3.94471828   2.72538803
 H   1.91294241  -4.58214579   1.86784315
 C   1.80138867  -2.57449617   4.47651778
 C   3.16626788  -2.70519075   4.25173141
 C   1.33553108  -1.76886025   5.52428354
 H   0.27149442  -1.66972829   5.71126496
 N   3.39079891  -3.58582734   3.12048581
 H   3.95762614  -4.40685829   3.35825749
 C   3.63240783  -1.24759672   6.07673626
 H   4.34265686  -0.72550058   6.70541501
 C   4.10139059  -2.04889896   5.03491662
 H   5.16368552  -2.15658349   4.84551806
 C   2.26017918  -1.11388326   6.32052809
 H   1.91912826  -0.48799567   7.13665226
 N  -0.63377526  -0.69121221   0.93651035
 H  -0.72768684  -0.01182711   1.67050919
 C  -0.21249789  -0.16932668  -0.36148458
 H  -0.57356487   0.86321416  -0.38228497
 C   1.32084629  -0.13153554  -0.42882183
 C  -0.79705797  -0.88197736  -1.58846144
 H  -0.34285005  -1.87151859  -1.64826830
 O   1.99539591  -1.06684779  -0.84536659
 C  -0.41456501  -0.09785525  -2.84991862
 H  -0.95856102   0.85290649  -2.84707915
 H   0.64780149   0.16675709  -2.79471139
 C  -2.31496992  -1.00697631  -1.47322871
 H  -2.76955300  -0.01836863  -1.36401903
 H  -2.73269768  -1.47303311  -2.36723275
 H  -2.59726138  -1.61770852  -0.61686487
 C  -0.65714765  -0.83962089  -4.15576012
 H  -0.29515796  -0.25594184  -5.00304379
 H  -1.71634011  -1.04789699  -4.31828545
 H  -0.12752725  -1.79595826  -4.16434490
 N   1.88236395   1.03241533  -0.01147272
 H   1.33021973   1.74893271   0.43019106
 C   3.31604185   1.21249501   0.02826558
 H   3.78284273   0.22527174  -0.00320513
 C   3.68169798   1.90312806   1.32434698
 C   3.83234939   2.04102845  -1.15672623
 H   3.34080155   3.01775963  -1.14087463
 H   4.89966460   2.21754472  -1.01708401
 O   2.91093936   2.47951032   2.04889954
 C   3.58847371   1.35347276  -2.49198490
 H   2.53817311   1.08029740  -2.58247318
 H   4.15029061   0.41529515  -2.52829784
 C   3.95072284   2.22669026  -3.68517172
 H   3.54051364   3.23239132  -3.55575686
 H   5.03616165   2.33135292  -3.75331613
 N   3.47266210   1.70650447  -4.95831521
 H   3.88451310   0.82009136  -5.20475422
 N   1.82668320   1.03986037  -6.43076290
 H   0.91725167   1.30281187  -6.78237919
 H   2.53832762   1.10585426  -7.14271846
 N   1.17136132   2.33095391  -4.62823195
 H   1.53429997   2.77432690  -3.78850385
 C   2.11930865   1.75584191  -5.27350236
 O   5.00507239   1.82850415   1.56728787
 H   3.90059155  -3.12654411   2.35822617
 H   5.15164837   2.31076790   2.39092502
