152
154
N          1.00285        1.84927        3.97555
H          1.09435        1.76236        2.87816
H          0.63978        2.78609        4.21110
H          1.92357        1.72725        4.40199
C         -0.00601        0.87254        4.52060
H          0.11728       -0.05941        3.96199
C         -1.35862        1.56253        4.22366
C          0.19505        0.62520        6.03189
H          0.11599        1.60311        6.52623
O         -1.48234        2.73787        4.57431
C         -0.92565       -0.27728        6.57431
H         -0.93711       -1.25048        6.06820
H         -0.77247       -0.46076        7.64206
H         -1.91232        0.17964        6.45528
C          1.57143        0.01161        6.33900
H          1.69421       -0.95929        5.84385
H          2.41624        0.65019        6.04645
H          1.67382       -0.15126        7.41626
N         -2.24202        0.80121        3.56988
H         -2.03936       -0.19184        3.44036
C         -3.64075        1.07810        3.22655
H         -4.10229        1.66221        4.03237
C         -4.25002       -0.35948        3.19411
C         -3.78711        1.83630        1.86270
H         -3.35965        1.17236        1.10492
O         -3.50021       -1.34067        3.19972
C         -2.99183        3.16334        1.80640
H         -3.00943        3.48056        0.75494
H         -1.93830        2.97385        2.03646
C         -5.25885        2.08464        1.48360
H         -5.82780        2.55522        2.29629
H         -5.77002        1.16605        1.18868
H         -5.30403        2.76387        0.62589
C         -3.51340        4.31095        2.67968
H         -2.88600        5.19940        2.54587
H         -4.53704        4.59495        2.41191
H         -3.48593        4.05798        3.74325
N         -5.59326       -0.50113        3.13594
H         -6.18660        0.30319        3.30238
C         -6.21663       -1.82943        3.21625
H         -5.95150       -2.29726        4.16992
C         -5.69130       -2.81272        2.14478
C         -7.75449       -1.69711        3.11492
H         -8.15968       -2.71096        3.20402
H         -8.01574       -1.33581        2.11325
O         -5.57382       -3.99895        2.41731
C         -8.35145       -0.78677        4.16856
C         -8.43818       -1.19965        5.50669
H         -8.10437       -2.19757        5.78284
C         -8.80338        0.49746        3.83398
H         -8.77168        0.82355        2.79576
C         -8.95988       -0.35120        6.48175
H         -9.02851       -0.69110        7.51152
C         -9.32503        1.35139        4.81028
H         -9.67942        2.33950        4.52962
C         -9.40273        0.92901        6.13675
H         -9.81370        1.58740        6.89682
N         -5.46798       -2.27808        0.90692
H         -5.41940       -1.26532        0.85063
C         -4.55768       -2.91565       -0.04362
H         -4.21864       -3.84985        0.41158
C         -3.37794       -1.93884       -0.20625
C         -5.21458       -3.19315       -1.41254
H         -4.45190       -3.62671       -2.07635
H         -5.49887       -2.22834       -1.85422
O         -3.56470       -0.72213       -0.09946
C         -6.44332       -4.12204       -1.37448
H         -7.18387       -3.65925       -0.70753
C         -7.06268       -4.21750       -2.77717
H         -6.36468       -4.68169       -3.48620
H         -7.32860       -3.22852       -3.16978
H         -7.97256       -4.82806       -2.76229
C         -6.11298       -5.51647       -0.82044
H         -5.31518       -5.99441       -1.40558
H         -6.99286       -6.16792       -0.87450
H         -5.80062       -5.47470        0.22781
N         -2.15946       -2.46464       -0.46256
H         -2.02202       -3.45909       -0.60278
C         -0.97211       -1.62749       -0.54789
H         -1.28620       -0.64458       -0.90206
C         -0.01248       -2.26517       -1.56535
C         -0.35032       -1.47660        0.86785
H         -0.12748       -2.48294        1.24344
H         -1.14982       -1.07592        1.49983
O         -0.02015       -3.47017       -1.80520
C          0.92783       -0.62358        1.02626
H          1.22992       -0.65208        2.07961
H          1.75164       -1.07425        0.45819
C          0.86844        0.83061        0.54934
O          1.15852        1.77834        1.36381
O          0.61694        1.04387       -0.66467
N          0.80336       -1.35584       -2.15931
H          0.79954       -0.41321       -1.75325
C          1.85804       -1.69657       -3.08172
H          1.65824       -2.71462       -3.42841
C          3.23837       -1.67997       -2.37471
C          1.79983       -0.69774       -4.30002
H          1.21610       -1.15278       -5.10647
H          1.26127        0.19633       -3.97745
O          3.46737       -0.98377       -1.38905
C          3.16751       -0.23633       -4.78191
N          3.70254       -0.88147       -5.84123
H          4.71267       -0.83368       -5.94434
H          3.23902       -1.68453       -6.24247
O          3.77125        0.67241       -4.19514
N          4.16691       -2.49018       -2.95176
H          3.92736       -3.02185       -3.77945
C          5.56943       -2.50500       -2.56893
H          5.60081       -2.23242       -1.51050
C          6.35572       -1.45589       -3.38333
C          6.16738       -3.93452       -2.72881
H          7.24968       -3.86174       -2.56916
H          5.76684       -4.53613       -1.90523
O          6.32000       -1.40593       -4.61276
C          5.87125       -4.62948       -4.04284
C          4.73271       -5.44282       -4.17528
H          4.07911       -5.59296       -3.31830
C          6.71075       -4.49616       -5.15688
H          7.59907       -3.87542       -5.09078
C          4.42978       -6.08773       -5.37216
H          3.55544       -6.72406       -5.46435
C          6.42656       -5.14147       -6.35805
H          7.09770       -5.02852       -7.20742
O          4.94369       -6.59315       -7.61967
H          5.63312       -6.45204       -8.28748
C          5.28114       -5.93886       -6.47225
N          7.10741       -0.60420       -2.63958
H          7.10304       -0.68447       -1.63296
C          7.86589        0.48430       -3.24357
H          8.31170        0.09248       -4.16639
C          9.02805        0.92569       -2.35861
C          6.98232        1.69189       -3.63431
H          7.63519        2.44842       -4.08238
H          6.28005        1.34599       -4.39747
O          9.67679        1.92577       -2.55562
C          6.19781        2.27786       -2.45538
H          5.61112        1.48215       -1.98119
H          6.88713        2.67653       -1.69757
C          5.23967        3.39541       -2.89438
H          5.79071        4.25085       -3.29689
H          4.57545        3.04385       -3.68810
N          4.41427        3.90353       -1.78917
H          4.88955        4.50333       -1.12757
N          2.79261        2.22152       -1.92701
H          1.92699        1.82414       -1.53367
H          3.24943        1.70561       -2.68515
N          2.77056        3.69717       -0.15753
H          2.03441        3.15142        0.31044
H          2.96025        4.63214        0.16980
C          3.32883        3.25618       -1.30303
O          9.26708        0.08151       -1.32531
H         10.03618        0.44537       -0.84547
