21
conf-879
 N  -1.05735487  -4.09862745   0.73820820
 H  -0.50601507  -4.27794451   1.57393859
 H  -1.56609169  -4.94490429   0.48390389
 H  -0.43654838  -3.87142603  -0.04249098
 C  -1.97259444  -2.95716523   0.91028611
 H  -2.91928004  -3.25897964   1.34795312
 H  -1.50475356  -2.21082864   1.54824504
 C  -2.19823191  -2.30665077  -0.44676147
 O  -1.36086007  -2.41447520  -1.33791725
 N  -3.33145127  -1.58024392  -0.57742164
 H  -3.87663779  -1.38181207   0.24640652
 C  -3.55727998  -0.78527286  -1.75221738
 H  -4.40544219  -1.15725853  -2.33141688
 H  -2.67253655  -0.88187875  -2.38382332
 C  -3.79681463   0.69579743  -1.42100075
 O  -3.78914098   1.14993587  -0.26734445
 N  -4.01268245   1.45659785  -2.53140853
 H  -3.75628373   1.06878419  -3.42293276
 C  -4.13754344   2.90026970  -2.42396100
 H  -4.68550029   3.27490301  -3.28663392
 H  -4.71139893   3.08987763  -1.51553513
 C  -2.76765505   3.58025094  -2.39201447
 O  -2.15213114   3.84857671  -3.40634427
 N  -2.28565538   3.82852324  -1.13873557
 H  -2.77573954   3.40846768  -0.36553838
 C  -0.88639843   4.09517490  -0.95984902
 H  -0.52533271   4.61851926  -1.84385758
 H  -0.73957178   4.74899273  -0.09912331
 C   0.01442340   2.87918693  -0.75112746
 O   1.23222209   3.02337761  -0.71924634
 N  -0.57553624   1.67758076  -0.59557677
 H  -1.57068980   1.62266143  -0.40735163
 C   0.22842904   0.51563397  -0.30947894
 H   1.15813564   0.62726909  -0.87100823
 H  -0.30031383  -0.36902760  -0.64705270
 C   0.50467435   0.37492403   1.18536915
 O  -0.06826526  -0.45745093   1.87903114
 N   1.38819088   1.24430509   1.70515531
 H   1.82342375   1.97011865   1.15307258
 C   1.67196068   1.19318114   3.11018661
 H   0.76225957   1.31795645   3.70249994
 H   2.07158238   0.21215051   3.38320199
 C   2.67557128   2.27867286   3.45450984
 O   3.23380969   2.94503817   2.59232661
 N   2.91071358   2.45524934   4.77374111
 H   2.56962246   1.76740299   5.42344998
 C   3.90595150   3.41403450   5.23136401
 H   3.78690214   4.30353322   4.61285864
 H   3.71542940   3.65918010   6.27414258
 C   5.32428401   2.86235056   5.11396880
 O   5.92625391   2.38563591   6.07258944
 N   5.85098281   2.89134940   3.87004314
 H   5.23502525   3.08581962   3.08883012
 C   7.10796950   2.22602395   3.60513825
 H   7.73854490   2.40457420   4.47902088
 H   7.57196392   2.65637478   2.71988345
 C   6.93448031   0.73025535   3.35875502
 O   7.18744064   0.20770731   2.27546389
 N   6.46157072   0.02505525   4.40375716
 H   6.34792666   0.48290451   5.30227562
 C   6.23525300  -1.39827556   4.29282202
 H   5.85262244  -1.58062428   3.28582580
 H   5.48885601  -1.71054919   5.02137132
 C   7.48842733  -2.23838500   4.53357479
 O   7.56132818  -3.04842255   5.44122055
 N   8.50854212  -1.99016817   3.67251910
 H   8.34098310  -1.37905977   2.88262239
 C   9.67343293  -2.82303395   3.68818710
 H   9.75690174  -3.25377257   4.68909992
 H   10.57461052  -2.24052140   3.49369236
 C   9.67904879  -3.97212466   2.70383890
 O   10.67751415  -4.55726156   2.37941287
 O   8.44811063  -4.29308214   2.25745191
 H   8.55928885  -5.04810497   1.66659849
