21
conf-351
 N  -1.08821696   7.24794262  -6.07386705
 H  -0.23868798   7.75828829  -6.30742027
 H  -0.83943782   6.39816938  -5.56527227
 H  -1.54041794   6.95398500  -6.93871212
 C  -2.00867313   8.04111806  -5.24053792
 H  -1.46099080   8.68342338  -4.54857413
 H  -2.63445900   8.68086869  -5.85710701
 C  -2.89078826   7.10298658  -4.42347714
 O  -2.59239897   5.92537102  -4.25563061
 N  -3.96455506   7.68631297  -3.84013128
 H  -4.21307686   8.62363250  -4.10519775
 C  -4.97413974   6.88102681  -3.17550161
 H  -5.26894454   6.02232162  -3.78447854
 H  -5.86194538   7.49118200  -3.01206885
 C  -4.56079779   6.29243554  -1.82542733
 O  -5.21092623   5.39779945  -1.31827452
 N  -3.45956370   6.83066727  -1.24634745
 H  -2.94790878   7.53748205  -1.73900686
 C  -2.87655422   6.21715434  -0.08604221
 H  -2.46013457   6.96733802   0.58604213
 H  -3.67465267   5.69183869   0.44317454
 C  -1.75211446   5.21234235  -0.34273050
 O  -0.97247408   4.92923896   0.56169119
 N  -1.69999444   4.62578462  -1.55095174
 H  -2.28766268   4.95963610  -2.30455365
 C  -0.62474890   3.71903549  -1.88962220
 H  -0.53705734   3.67456083  -2.97415747
 H   0.29620009   4.11940885  -1.46381138
 C  -0.84323786   2.29118328  -1.39468520
 O  -0.97245007   1.34423061  -2.16975117
 N  -0.88553629   2.13685297  -0.05870993
 H  -0.75549036   2.94813547   0.53627905
 C  -1.05478463   0.82388678   0.52518740
 H  -1.77892458   0.28519850  -0.08871975
 H  -1.44019473   0.92644354   1.53829674
 C   0.26056622   0.05143819   0.60208423
 O   0.86739512  -0.10059129   1.64829951
 N   0.70692497  -0.42416931  -0.58914790
 H   0.19793799  -0.21823847  -1.43719043
 C   1.92272771  -1.18526690  -0.64813937
 H   2.20722239  -1.39473557   0.38503829
 H   1.78031254  -2.13488572  -1.16710170
 C   3.11007871  -0.50054110  -1.33114550
 O   4.06496864  -1.14612746  -1.72490925
 N   3.04197855   0.84121144  -1.43056314
 H   2.24258749   1.37240722  -1.13911464
 C   4.09752079   1.57239562  -2.07678216
 H   5.01920183   1.55655045  -1.48887016
 H   4.34407498   1.13351868  -3.04747935
 C   3.60233640   3.00509031  -2.24065113
 O   2.55613972   3.38138695  -1.72464348
 N   4.38691774   3.82099425  -2.96314015
 H   5.21779583   3.50701669  -3.43465480
 C   3.97961346   5.17720817  -3.21884189
 H   4.07499218   5.79997258  -2.32466306
 H   2.92350411   5.21390479  -3.50070144
 C   4.86842181   5.72549434  -4.33414626
 O   5.86118111   5.13388460  -4.71773831
 N   4.49215153   6.91546032  -4.84264097
 H   3.63134718   7.37545401  -4.59976642
 C   5.23704826   7.49906172  -5.92529950
 H   5.39398509   6.77186177  -6.72705369
 H   6.23622838   7.80293914  -5.60223576
 C   4.44434351   8.70344193  -6.43257708
 O   3.37101948   9.02280814  -5.95270263
 N   5.01493469   9.38297042  -7.44765524
 H   5.90342380   9.11609662  -7.83628428
 C   4.34896373   10.53681569  -8.00185653
 H   4.16155102   11.29239705  -7.23661885
 H   3.37369751   10.27447686  -8.41630882
 C   5.21099610   11.12287233  -9.08698678
 O   6.27737321   10.67642585  -9.42691814
 O   4.64989297   12.21248599  -9.64162342
 H   5.26410285   12.52025512  -10.32169815
