21
conf-876
 N   1.71464656   10.75417345   1.62709813
 H   2.03700981   11.51730066   1.03482651
 H   2.49198318   10.11421420   1.79669537
 H   1.00000530   10.22033890   1.12120524
 C   1.18812108   11.23648543   2.92806899
 H   1.98031553   11.70722208   3.50822536
 H   0.39182934   11.96182091   2.76298491
 C   0.68059837   10.02945223   3.69815555
 O   1.44505095   9.27357063   4.27035725
 N  -0.67761955   9.81500632   3.63253607
 H  -1.15303125   10.38163447   2.94996088
 C  -1.10650938   8.43086539   3.63256133
 H  -2.15357254   8.36115038   3.92469825
 H  -0.50585818   7.90076571   4.37336630
 C  -0.90676550   7.79658740   2.25086851
 O  -0.29712859   8.36519060   1.34775313
 N  -1.42533334   6.56803792   2.08379030
 H  -1.90523957   6.06598632   2.81053506
 C  -1.24546343   5.88107759   0.83334179
 H  -1.67593645   6.44841508   0.00592052
 H  -0.18312934   5.76832350   0.59909843
 C  -1.90967281   4.51442431   0.95640691
 O  -2.41512950   4.13431694   1.99279838
 N  -1.86006562   3.75729467  -0.16937460
 H  -1.40391213   4.11696009  -0.98830586
 C  -2.44372848   2.43861116  -0.20015977
 H  -3.15081634   2.38841198   0.63146976
 H  -2.99062516   2.26141995  -1.12592490
 C  -1.47371533   1.26006110  -0.04178784
 O  -1.79744450   0.13802523  -0.38918489
 N  -0.28804353   1.53398195   0.53528635
 H  -0.01279717   2.45726143   0.81306299
 C   0.63565439   0.47087556   0.82760404
 H   0.99428038  -0.01441761  -0.08520654
 H   0.15525671  -0.31717549   1.41757658
 C   1.80129643   1.07147821   1.59936565
 O   1.89906567   2.27808790   1.78334876
 N   2.72603681   0.18843097   2.03832086
 H   2.49974972  -0.79134205   2.02149393
 C   3.85697610   0.62786085   2.84369689
 H   4.62343732  -0.14426408   2.83102032
 H   4.23794405   1.53607543   2.37751450
 C   3.45686466   0.89573526   4.29318175
 O   3.60194386   0.05902354   5.18043607
 N   2.88847918   2.10236365   4.51911935
 H   2.57109270   2.63645965   3.71821371
 C   2.27684692   2.37725379   5.80113299
 H   2.92817212   1.92047018   6.55167620
 H   2.22381108   3.45242286   5.95944492
 C   0.86077053   1.81903331   5.89854533
 O  -0.13158255   2.54242642   5.96147590
 N   0.77008717   0.47506890   5.88948722
 H   1.61608182  -0.08484554   5.88013278
 C  -0.52114530  -0.17615512   5.96994221
 H  -0.44974800  -1.17314711   5.53908131
 H  -1.22084597   0.42733921   5.38984118
 C  -1.00174133  -0.31938922   7.40966907
 O  -1.01376511  -1.38743180   7.99413853
 N  -1.36799142   0.84807419   7.99909187
 H  -1.28315346   1.71764600   7.49084036
 C  -1.71954782   0.87088991   9.39074513
 H  -1.94064803  -0.15840919   9.68054220
 H  -2.60939691   1.47793114   9.56245114
 C  -0.65051411   1.39974298   10.34851816
 O  -0.93932947   1.70355227   11.49137823
 N   0.60643681   1.49979913   9.84256196
 H   0.78635569   1.11471545   8.93356114
 C   1.70744076   1.78114955   10.71671957
 H   1.31177878   2.30851242   11.58770410
 H   2.43505437   2.43133481   10.22960189
 C   2.46877621   0.57716292   11.22482419
 O   3.56713813   0.64747106   11.70753834
 O   1.77520137  -0.57437560   11.11276783
 H   2.33204108  -1.26762169   11.48905718
