21
conf-883
 N   7.78447091   0.93693210   0.98116864
 H   8.15521383   0.20242226   0.38260580
 H   8.48963811   1.66287337   1.10026435
 H   7.57919410   0.56185496   1.91200494
 C   6.52467596   1.50035071   0.46561668
 H   6.69293986   2.36225635  -0.17520340
 H   5.97746865   0.75438991  -0.11452562
 C   5.64943058   1.88855051   1.65571479
 O   5.88825767   1.46754861   2.78399502
 N   4.57717719   2.64680252   1.37609391
 H   4.29101182   2.82010501   0.42733468
 C   3.54424287   2.80916312   2.36150249
 H   3.95844917   3.18932934   3.29346323
 H   3.07453547   1.84073543   2.58636289
 C   2.49835592   3.73969874   1.77338819
 O   2.45206592   3.95905722   0.57032033
 N   1.61131638   4.26726150   2.64379874
 H   1.61488825   3.96058402   3.60136983
 C   0.53660331   5.13663143   2.18664905
 H   0.14954739   5.69759484   3.03441890
 H   0.96524937   5.82599369   1.46008882
 C  -0.61465520   4.34995646   1.56362763
 O  -1.60614966   4.03056260   2.19527840
 N  -0.41268896   3.99289619   0.26866296
 H   0.49688782   4.14765921  -0.14278734
 C  -1.30141699   3.06485981  -0.37299571
 H  -2.22581945   3.06124492   0.20725075
 H  -1.52677494   3.37986492  -1.39186256
 C  -0.79045058   1.62346668  -0.48019506
 O  -1.15432006   0.89825670  -1.38633570
 N   0.03588946   1.22397643   0.51743918
 H   0.27780640   1.87051139   1.24278671
 C   0.61846341  -0.09113798   0.50667329
 H   0.57935031  -0.44567296  -0.52633832
 H   0.03760277  -0.77618806   1.12049284
 C   2.09159237  -0.07827264   0.98540023
 O   2.93156257   0.68039022   0.48167693
 N   2.36026671  -0.96588327   1.97115910
 H   1.67045237  -1.69011041   2.12322417
 C   3.67583497  -1.07695858   2.55165365
 H   4.12861633  -0.08616391   2.51398958
 H   3.59977228  -1.38678870   3.59280376
 C   4.61870538  -2.06757028   1.87418684
 O   5.25069433  -2.89000824   2.53659106
 N   4.74676468  -1.97535204   0.53674600
 H   4.20444263  -1.28316251   0.03553705
 C   5.57888414  -2.90326312  -0.20531091
 H   5.78593160  -2.48046470  -1.18875621
 H   6.50883997  -3.02731209   0.35293989
 C   4.89158197  -4.25459699  -0.39062205
 O   4.27207185  -4.54413322  -1.41060794
 N   4.98504118  -5.09377011   0.66454246
 H   5.23720229  -4.70425684   1.56714800
 C   4.31956871  -6.37904990   0.62786405
 H   4.82962408  -7.07471269   1.29148016
 H   4.38653346  -6.72973696  -0.40400202
 C   2.86636138  -6.29338627   1.08064111
 O   2.45630537  -6.86972556   2.08474454
 N   2.06533705  -5.51892868   0.32050707
 H   2.44739590  -5.04252105  -0.49000847
 C   0.70288452  -5.25716196   0.73075426
 H   0.27116593  -6.20259880   1.05991187
 H   0.14015254  -4.87212712  -0.11645070
 C   0.62837022  -4.22700512   1.86161477
 O   0.37155695  -3.04812817   1.63859980
 N   0.86964749  -4.69640104   3.10062020
 H   1.23663073  -5.63567205   3.20029074
 C   0.80434187  -3.82269149   4.24714932
 H   0.11933713  -3.00003745   4.04284865
 H   1.78172269  -3.37730443   4.47591069
 C   0.32901161  -4.50402787   5.50525897
 O  -0.20502710  -3.93400062   6.41763162
 O   0.61783947  -5.82200933   5.51985395
 H   0.30539011  -6.17189743   6.36418475
