21
conf-90
 N   0.20330607   0.61943605  -5.43229293
 H  -0.27182699  -0.26099092  -5.62253029
 H  -0.38805808   1.37894172  -5.77190852
 H   1.06297315   0.64444209  -5.97984118
 C   0.50008193   0.77651085  -3.99255396
 H  -0.43232785   0.76028400  -3.43150557
 H   1.14346064  -0.02613359  -3.65161860
 C   1.16439021   2.13274125  -3.70399061
 O   0.64574587   3.19354837  -4.13379942
 N   2.30938730   2.05512548  -2.96253160
 H   2.37227701   1.26398277  -2.33408406
 C   3.07302573   3.25675737  -2.69751453
 H   2.93208767   3.89861066  -3.57131292
 H   4.12291243   2.99290708  -2.57918038
 C   2.59222778   3.92553842  -1.41971697
 O   3.03119115   3.60765475  -0.32465987
 N   1.62110793   4.87393922  -1.57138032
 H   1.19642499   4.91076005  -2.48646393
 C   0.73286706   5.10776232  -0.45904669
 H   1.32733587   5.25028151   0.44060026
 H   0.17573395   6.02553415  -0.65487507
 C  -0.24462142   3.96882499  -0.16013188
 O  -0.55467961   3.68196565   0.99391443
 N  -0.77094650   3.32107083  -1.21371319
 H  -0.44433842   3.51430313  -2.15291806
 C  -1.78591682   2.30814127  -1.03807699
 H  -2.42218994   2.62729248  -0.20980562
 H  -2.37841402   2.23770923  -1.94833398
 C  -1.21102021   0.92031941  -0.76046262
 O  -1.43780528  -0.03239446  -1.50098614
 N  -0.44749267   0.82862268   0.34816749
 H  -0.29886038   1.65416658   0.91733910
 C   0.22924773  -0.39898873   0.65118035
 H  -0.40546791  -1.21247615   0.29862915
 H   0.37467289  -0.49253485   1.72533124
 C   1.56807814  -0.51642539  -0.05881136
 O   1.75521571  -0.06270918  -1.17960917
 N   2.54913018  -1.17034468   0.60595906
 H   2.31072293  -1.66024547   1.44941576
 C   3.74148768  -1.57723191  -0.10804504
 H   4.24593622  -2.36168011   0.45857795
 H   3.49598346  -1.98439203  -1.08904385
 C   4.76460745  -0.47106093  -0.36019129
 O   5.64369711  -0.61975826  -1.19175265
 N   4.68316465   0.61610425   0.44389566
 H   3.92626670   0.69058576   1.09804570
 C   5.62378602   1.69556004   0.30699983
 H   6.11202727   1.56420170  -0.66375491
 H   5.11749376   2.65711036   0.31541246
 C   6.72454535   1.77127279   1.37131338
 O   7.29061004   2.82289377   1.61049565
 N   7.05345484   0.61181330   1.97142866
 H   6.56761148  -0.24937916   1.80339279
 C   8.09812596   0.58536798   2.96024168
 H   7.84383476   1.20986500   3.82466124
 H   9.02869101   0.99714187   2.55929841
 C   8.29531171  -0.86233191   3.39083282
 O   7.53600194  -1.75353931   3.02776332
 N   9.34647277  -1.08764021   4.20417346
 H   9.87843019  -0.30544828   4.54619077
 C   9.68497391  -2.42694744   4.64862937
 H   10.74403627  -2.48560437   4.88877753
 H   9.47028931  -3.09613276   3.81274528
 C   8.91228934  -2.88142289   5.88637080
 O   9.47279604  -3.15939574   6.93236627
 N   7.56440685  -2.92694293   5.72932872
 H   7.17669598  -2.78603245   4.80520330
 C   6.74735495  -3.50243377   6.75486790
 H   5.80314177  -2.96562063   6.85258691
 H   7.28939307  -3.41001071   7.69930361
 C   6.39842776  -4.96428466   6.57983097
 O   5.50661662  -5.50549086   7.17667570
 O   7.21047053  -5.60234817   5.71313638
 H   6.92337684  -6.52367054   5.69726682
