21
conf-684
 N  -10.01576247   5.97784770   0.07555960
 H  -10.17218593   6.98229423   0.14047852
 H  -9.79592290   5.74925690  -0.89241826
 H  -10.89333340   5.50184288   0.27752300
 C  -8.94855852   5.50675216   0.97609898
 H  -7.99922692   5.98396672   0.73108371
 H  -9.18054711   5.74880812   2.01273634
 C  -8.78180064   3.99972528   0.85553776
 O  -9.48081035   3.32172208   0.12512771
 N  -7.77402650   3.48302724   1.60605354
 H  -7.24454176   4.08605025   2.20938549
 C  -7.53407493   2.05892508   1.64257187
 H  -8.42734295   1.56707012   1.25142816
 H  -7.36473562   1.70457501   2.65892021
 C  -6.34161181   1.57725609   0.81747334
 O  -5.79812135   0.50824867   1.07424951
 N  -5.95945679   2.36460790  -0.20143909
 H  -6.39736573   3.26173199  -0.30821124
 C  -4.88848362   1.97091473  -1.09277492
 H  -4.98823817   0.89287691  -1.24268014
 H  -4.99281107   2.47781135  -2.04939423
 C  -3.49365553   2.28922013  -0.55886446
 O  -2.70148505   2.99167237  -1.18309313
 N  -3.19258105   1.75057903   0.63755768
 H  -3.82948328   1.07873499   1.05234340
 C  -1.88363813   1.94967780   1.21749859
 H  -1.58668856   2.97532410   0.98521614
 H  -1.93572614   1.82457692   2.29794362
 C  -0.84344354   0.95981205   0.69321927
 O  -0.30819454   0.14036545   1.42019862
 N  -0.60033344   1.04809133  -0.64242567
 H  -0.97573265   1.82665653  -1.17085830
 C   0.43427068   0.25559156  -1.23993868
 H   0.01310542  -0.41252172  -2.00201655
 H   0.87505020  -0.36562749  -0.46098701
 C   1.49028669   1.13003602  -1.91262042
 O   1.25385209   2.26809496  -2.28960185
 N   2.69686835   0.53032339  -2.10841132
 H   2.71931174  -0.47493764  -2.05295433
 C   3.66016551   1.15840106  -3.00440903
 H   3.58038590   2.23134628  -2.83922381
 H   4.66227883   0.81250299  -2.76112364
 C   3.36364003   0.78560831  -4.44867971
 O   3.97570298  -0.10732519  -5.02483835
 N   2.35712074   1.47624856  -5.04413696
 H   1.75660900   2.02529021  -4.43623364
 C   1.73790009   0.87261015  -6.20561875
 H   0.89402292   1.49311910  -6.51295326
 H   2.46709430   0.84771514  -7.01885918
 C   1.26713420  -0.54390088  -5.89280954
 O   0.81133680  -0.84458428  -4.80012848
 N   1.41289283  -1.43673818  -6.91307044
 H   2.02583247  -1.15237328  -7.66747224
 C   1.41732807  -2.85991756  -6.61686022
 H   0.73598771  -3.39888716  -7.27565888
 H   1.09297910  -2.96938896  -5.57980841
 C   2.80590360  -3.45483388  -6.84330955
 O   3.01261678  -4.34289723  -7.64614829
 N   3.80610636  -2.89534058  -6.09242465
 H   3.58895019  -2.03170304  -5.61011598
 C   5.13142139  -2.90542952  -6.65837906
 H   5.39404852  -3.92557290  -6.94292883
 H   5.83214704  -2.55878502  -5.89653783
 C   5.20931492  -1.97791738  -7.87623058
 O   4.25599855  -1.29328926  -8.24043440
 N   6.38435933  -1.94652599  -8.52651883
 H   7.16434174  -2.52027957  -8.25350323
 C   6.52159042  -1.11890340  -9.70014266
 H   6.36321531  -0.06533666  -9.46624244
 H   5.77936538  -1.37845296  -10.45654441
 C   7.90308935  -1.30622487  -10.26678091
 O   8.73765564  -2.04008248  -9.80118727
 O   8.10259803  -0.55438401  -11.36422515
 H   9.00499635  -0.73570105  -11.65957958
