21
conf-961
 N  -2.16799013   14.09887938  -7.39564505
 H  -2.91278749   14.79087705  -7.42140303
 H  -1.47228513   14.35086463  -6.68894900
 H  -1.68209523   14.08871880  -8.29105708
 C  -2.65121675   12.75278729  -7.03946696
 H  -3.53431246   12.80139202  -6.40027962
 H  -2.92187410   12.18023703  -7.92425175
 C  -1.53945208   12.03650537  -6.27466128
 O  -0.56625024   12.63199461  -5.83929828
 N  -1.72296974   10.71561630  -6.08767439
 H  -2.53295166   10.21181171  -6.40639776
 C  -0.76199674   9.95500416  -5.33589531
 H  -0.63346001   10.36428602  -4.32991812
 H   0.22703923   9.99562427  -5.80064595
 C  -1.27047931   8.51532645  -5.27044592
 O  -2.32691379   8.17646366  -5.77283597
 N  -0.47158844   7.65080651  -4.61683172
 H   0.40440066   7.90814679  -4.19594037
 C  -0.85566384   6.27090353  -4.49462748
 H  -1.81682220   6.17151635  -3.98265255
 H  -0.99558747   5.81103079  -5.47685237
 C   0.24758327   5.55618678  -3.71574597
 O   1.23846183   6.13785930  -3.31198295
 N   0.04776037   4.24093405  -3.50776075
 H  -0.76222240   3.74069248  -3.83071003
 C   1.02535060   3.47323322  -2.78573759
 H   2.00203444   3.51616672  -3.27592411
 H   1.18145560   3.87649831  -1.78136370
 C   0.51774123   2.03345678  -2.71683808
 O  -0.54117552   1.69382629  -3.21349381
 N   1.32089427   1.16941663  -2.06703267
 H   2.21008352   1.42708221  -1.67600898
 C   0.94229425  -0.21401631  -1.96090351
 H   0.79637775  -0.65635353  -2.95133666
 H  -0.01287533  -0.32233976  -1.44246039
 C   2.04998974  -0.94440102  -1.21029087
 O   3.06749188  -0.38286841  -0.85754772
 N   1.81183050  -2.26284561  -0.99555631
 H   0.97474507  -2.67626571  -1.36383978
 C   2.78110314  -3.09403216  -0.32485227
 H   3.48170344  -2.41438354   0.16611883
 H   2.31978067  -3.72237374   0.43727267
 C   3.59091470  -4.03735239  -1.22052086
 O   4.05677032  -5.07313043  -0.77946726
 N   3.78812838  -3.63097380  -2.49073556
 H   3.41456644  -2.77931429  -2.86781442
 C   4.57628266  -4.43174587  -3.38809272
 H   5.58056922  -4.60226817  -2.98873653
 H   4.13734258  -5.42521209  -3.52599472
 C   4.65445020  -3.69236012  -4.72365175
 O   4.12351428  -2.61061802  -4.90115579
 N   5.35592668  -4.31749986  -5.68866405
 H   5.77358665  -5.22464435  -5.57401460
 C   5.47471216  -3.71462829  -6.98816756
 H   5.95664349  -2.73542263  -6.92744095
 H   4.48794210  -3.53020118  -7.42546195
 C   6.28612728  -4.66535957  -7.86106712
 O   6.63915744  -5.76592936  -7.46359176
 N   6.58166774  -4.19391131  -9.09594529
 H   6.08109656  -3.38910428  -9.43243017
 C   7.24839660  -5.03906264  -10.06750384
 H   7.88083952  -5.71856396  -9.49271507
 H   7.86950517  -4.43406853  -10.72520275
 C   6.26713032  -5.80757696  -10.95169215
 O   6.13836655  -5.57936242  -12.14253777
 N   5.53179814  -6.74367843  -10.31117080
 H   5.64975866  -6.92792130  -9.32571597
 C   4.55391281  -7.50172061  -11.04558495
 H   5.01946716  -8.08738877  -11.84108403
 H   3.83073258  -6.84497028  -11.53468423
 C   3.82323512  -8.43195845  -10.11628859
 O   4.04090101  -8.53835198  -8.93672636
 O   2.88411029  -9.14548063  -10.76432840
 H   2.46743998  -9.71284963  -10.10180599
