82
84
N         -1.29563       -5.16315       -2.37617
H         -1.58601       -6.12331       -2.16369
H         -0.90227       -5.11968       -3.32388
C         -2.44552       -4.22462       -2.25908
H         -3.25017       -4.46896       -2.97432
C         -1.94357       -2.84406       -2.70224
C         -3.08942       -4.27318       -0.83292
H         -3.63624       -3.34204       -0.65157
H         -3.83471       -5.07659       -0.84021
O         -0.81124       -2.69456       -3.22930
C         -2.12575       -4.52764        0.31417
C         -1.80350       -5.84829        0.66303
H         -2.23249       -6.67374        0.10348
C         -1.60758       -3.47916        1.08381
H         -1.84747       -2.44289        0.87469
C         -0.97035       -6.12008        1.75010
H         -0.74706       -7.14655        2.01661
C         -0.79046       -3.74966        2.18479
H         -0.42227       -2.92647        2.78681
C         -0.46768       -5.06705        2.52321
H          0.14110       -5.27563        3.39585
N         -2.79672       -1.79307       -2.61227
H         -3.73757       -1.91767       -2.24558
C         -2.52289       -0.53410       -3.36294
H         -1.93075       -0.79073       -4.24525
C         -1.72024        0.44927       -2.48453
C         -3.85195        0.12386       -3.78536
H         -4.46266        0.28411       -2.88212
H         -4.38593       -0.54582       -4.46326
O         -2.14652        1.58541       -2.19793
O         -3.58081        1.33934       -4.51136
H         -3.21971        1.97146       -3.82576
N         -0.54417       -0.05826       -2.00393
H         -0.20709       -0.95692       -2.34976
C          0.11481        0.59645       -0.87259
H         -0.34117        1.58271       -0.77759
C          1.62243        0.64488       -0.98505
C         -0.19465       -0.26133        0.39679
H          0.17826        0.23309        1.29187
H          0.33033       -1.21960        0.28528
O          2.31799       -0.32702       -1.38275
O         -1.63646       -0.43274        0.52912
H         -1.95434       -0.75016       -0.36227
N          2.21754        1.72793       -0.43621
H          1.66114        2.47221       -0.02642
C          3.60873        1.57018       -0.01390
H          4.20237        1.20711       -0.85363
C          3.61188        0.50462        1.12097
C          4.23217        2.89642        0.49148
H          4.21607        3.62844       -0.32087
H          3.71479        3.27579        1.37293
O          2.57989        0.22829        1.76720
C          5.66226        2.51705        0.84666
O          6.39770        1.91006        0.05743
O          5.94357        2.71949        2.15094
N          4.81632       -0.07932        1.33850
H          5.61678        0.18629        0.76131
C          5.06754       -0.92648        2.51133
H          4.38856       -0.59149        3.30833
C          6.48237       -0.62670        2.99997
C          4.78872       -2.42347        2.21777
H          5.41769       -3.04278        2.85880
H          5.07353       -2.60867        1.17600
O          7.13912        0.38789        2.75575
C          3.28539       -2.76485        2.45144
H          2.68679       -1.85115        2.39572
H          3.16862       -3.18288        3.45708
C          2.71801       -3.76656        1.43261
H          3.40487       -4.60980        1.28440
H          1.76765       -4.15054        1.80960
N          2.46279       -3.07668        0.14921
H          2.91459       -2.18039       -0.02226
N          0.92690       -4.66928       -0.65852
H          0.12048       -4.86799       -1.30728
H          0.91532       -5.15663        0.23008
N          1.53377       -2.84813       -1.95288
H          1.93193       -1.89795       -1.98088
H          0.81131       -3.09103       -2.63299
C          1.63782       -3.54813       -0.81467
O          6.93878       -1.61908        3.81009
H          7.84224       -1.38656        4.16530
H          6.70129        2.10528        2.42043
