123
125
N         -0.11908        3.56784        1.36528
H          0.16577        4.10730        0.54273
H          0.62746        2.86714        1.56056
H         -0.27408        4.19698        2.16250
C         -1.38715        2.82765        1.07029
H         -1.19396        2.27488        0.15613
C         -2.50739        3.84353        0.88796
C         -1.72461        1.84247        2.21297
H         -1.07487        0.97580        2.09207
H         -2.74585        1.49497        2.05430
O         -2.47843        4.92480        1.46292
C         -1.57950        2.43218        3.59880
C         -0.36600        2.31949        4.29520
H          0.46242        1.77293        3.85029
C         -2.64332        3.12691        4.19146
H         -3.58815        3.20133        3.66327
C         -0.21674        2.89264        5.56026
H          0.72567        2.79170        6.09198
C         -2.49168        3.69695        5.45522
H         -3.32481        4.22763        5.90746
C         -1.28000        3.58484        6.14166
H         -1.16764        4.02909        7.12668
N         -3.51315        3.38681        0.09565
H         -3.39857        2.46503       -0.31304
C         -4.89553        3.84148        0.22982
H         -4.86584        4.71666        0.88545
C         -5.61533        2.72652        1.02528
C         -5.49028        4.22265       -1.12604
H         -6.52260        4.57343       -1.02014
H         -5.46970        3.37721       -1.82431
H         -4.90246        5.03109       -1.56813
O         -5.16438        2.37877        2.11983
N         -6.68428        2.12309        0.45990
H         -6.98745        2.38794       -0.46674
C         -7.37647        0.99506        1.10026
H         -7.30824        1.16813        2.17847
C         -6.64107       -0.32761        0.75622
C         -8.83148        0.94438        0.65137
H         -9.35262        0.13129        1.16259
H         -8.89859        0.74311       -0.42227
H         -9.33393        1.88815        0.88353
O         -7.10729       -1.13099       -0.04801
N         -5.45081       -0.48993        1.38791
H         -5.12845        0.20805        2.05616
C         -4.61664       -1.66758        1.22255
H         -5.17906       -2.55808        1.54300
C         -3.41967       -1.49868        2.18588
C         -4.21164       -1.90983       -0.25939
H         -3.62240       -2.83397       -0.31363
H         -5.13957       -2.09855       -0.80117
O         -3.36059       -0.54611        2.95867
C         -3.44632       -0.77937       -0.90780
C         -4.05208        0.11346       -1.80459
H         -5.11233        0.00553       -2.01972
C         -2.08301       -0.60835       -0.64533
H         -1.59310       -1.27176        0.05549
C         -3.31868        1.12780       -2.43279
H         -3.79026        1.81275       -3.13101
C         -1.33888        0.39291       -1.25781
H         -0.29064        0.53112       -1.02814
O         -1.23087        2.26297       -2.77779
H         -0.43985        2.48727       -2.20568
C         -1.95262        1.27335       -2.15766
N         -2.44520       -2.44868        2.12776
H         -2.54284       -3.25134        1.52000
C         -1.22481       -2.37635        2.93749
H         -1.27895       -1.41605        3.45635
C         -0.03892       -2.40637        1.95346
C         -1.09978       -3.50815        3.96678
H         -1.00034       -4.46414        3.43741
H         -0.14465       -3.34905        4.48599
O          0.23831       -3.42700        1.32520
C         -2.24849       -3.56822        5.00176
H         -2.59986       -2.54193        5.18216
C         -3.44115       -4.40296        4.50654
H         -3.13480       -5.44100        4.32345
H         -4.23929       -4.42001        5.25693
H         -3.86719       -4.01002        3.57878
C         -1.72929       -4.13622        6.33161
H         -1.32886       -5.14871        6.19269
H         -0.92962       -3.51326        6.74918
H         -2.53245       -4.19542        7.07443
N          0.60875       -1.22324        1.77676
H          0.38568       -0.42229        2.35592
C          1.68681       -1.00360        0.82246
H          2.60193       -1.49709        1.18594
C          1.97762        0.52084        0.82891
C          1.35155       -1.56820       -0.59638
H          0.31395       -1.88883       -0.60363
H          1.43772       -0.77807       -1.34668
O          1.42077        1.25600        1.66353
C          2.21510       -2.76154       -1.00630
H          1.73266       -3.31426       -1.82505
H          2.30994       -3.47956       -0.18761
C          3.57183       -2.35808       -1.52307
O          3.85014       -1.24388       -1.96388
O          4.45983       -3.34905       -1.49372
N          2.87392        0.95931       -0.06363
H          3.24673        0.29407       -0.73311
C          3.13848        2.37961       -0.29534
H          3.06731        2.86564        0.68535
C          2.02654        3.03700       -1.17662
C          4.55972        2.63249       -0.82445
H          5.26976        2.38747       -0.02569
H          4.62623        3.70933       -0.99872
O          2.35766        4.01864       -1.87377
C          5.02528        1.89229       -2.09575
H          5.14371        0.81856       -1.90506
H          6.03490        2.25731       -2.31828
C          4.20021        2.08312       -3.37806
H          4.80094        1.79045       -4.24751
H          3.91398        3.12644       -3.49400
N          2.98645        1.24366       -3.36787
H          3.13524        0.28039       -3.07657
N          1.44388        2.81250       -4.15999
H          0.48667        2.94702       -4.46476
H          1.78828        3.54163       -3.51157
N          0.87792        0.56655       -4.06735
H         -0.09973        0.80983       -3.93933
H          1.13356       -0.39574       -3.89942
C          1.77890        1.55083       -3.84943
O          0.86342        2.52564       -1.08933
H          5.29778       -3.02845       -1.88166
