21
conf-817
 N  -7.75111128  -3.30896801  -8.88564972
 H  -7.33826813  -3.71405168  -9.72754188
 H  -8.76068912  -3.26714122  -9.00712465
 H  -7.53849987  -3.93132877  -8.10245725
 C  -7.19053506  -1.97404988  -8.58988927
 H  -7.23072662  -1.37345870  -9.49847949
 C  -5.74473768  -2.13777161  -8.15076909
 C  -8.00282965  -1.29319262  -7.49262974
 H  -7.93443317  -1.92174754  -6.59924745
 H  -9.05317347  -1.30310425  -7.80428607
 O  -5.38705508  -3.09642794  -7.46562080
 C  -7.61963904   0.14014384  -7.13094264
 H  -6.56344586   0.14790046  -6.83139163
 C  -7.80299007   1.10486574  -8.29647490
 H  -8.84396867   1.09742775  -8.63120427
 H  -7.16966528   0.85578522  -9.15210100
 H  -7.55228032   2.12384196  -7.99168516
 C  -8.45049619   0.58903958  -5.93302698
 H  -9.50875451   0.62719947  -6.20075230
 H  -8.34375417  -0.09601117  -5.08927240
 H  -8.14877676   1.58123002  -5.59208337
 N  -4.89035197  -1.16060313  -8.54627092
 H  -5.30093004  -0.28797615  -8.84248142
 C  -3.54671140  -1.09579858  -7.97360949
 H  -3.23168018  -2.13151770  -7.84537793
 C  -3.65233578  -0.41922822  -6.60412128
 C  -2.53835327  -0.38135909  -8.87475453
 H  -2.83227938   0.66994781  -8.92188361
 O  -3.58859034   0.81374778  -6.46950009
 C  -1.14239804  -0.48991989  -8.25310724
 H  -0.82141520  -1.53400301  -8.24112905
 H  -1.13866955  -0.12285043  -7.22491855
 H  -0.41401414   0.08791239  -8.82688552
 C  -2.51780391  -0.96323491  -10.28508698
 H  -2.25259923  -2.02344066  -10.25236922
 H  -1.76681555  -0.44891948  -10.89000883
 H  -3.47987647  -0.86250093  -10.78804322
 N  -3.89067754  -1.25654689  -5.58165880
 H  -3.96013084  -2.24473085  -5.75943937
 C  -4.12197129  -0.78489166  -4.22497935
 H  -4.69227146   0.14692727  -4.31240642
 C  -2.75150044  -0.46150198  -3.62399756
 C  -4.92611464  -1.79608594  -3.40960400
 H  -4.34269672  -2.71667677  -3.37764034
 O  -2.03071573  -1.31908928  -3.11209321
 C  -5.16557634  -1.30581042  -1.98283350
 H  -5.71688165  -0.36245813  -1.99705323
 H  -4.23214188  -1.14527747  -1.44668253
 H  -5.75320694  -2.03464736  -1.41995208
 C  -6.27381498  -2.06380252  -4.07709393
 H  -6.88375603  -1.15676080  -4.02175868
 H  -6.16840536  -2.35443412  -5.12389723
 H  -6.80553273  -2.85980157  -3.55350685
 N  -2.37149457   0.83062377  -3.73994598
 H  -2.98344714   1.45002115  -4.24556632
 C  -0.97624452   1.22438682  -3.61585466
 H  -0.36821410   0.38444807  -3.97455665
 C  -0.65344284   1.49219356  -2.14858774
 C  -0.70849677   2.45512998  -4.46899791
 H   0.31796419   2.79180269  -4.30535996
 H  -1.38097050   3.26117735  -4.15005238
 O  -0.53481603   2.63108434  -1.68789113
 O  -0.83343326   2.17181997  -5.85084386
 H  -1.74971569   1.93480493  -6.03516851
 N  -0.51353212   0.39649220  -1.37691122
 H  -0.65537248  -0.52576218  -1.77634664
 C  -0.25443678   0.49929361   0.04708742
 H  -0.78956889   1.38152356   0.40777647
 C   1.24659685   0.69816230   0.27113995
 C  -0.75566975  -0.74336957   0.78106830
 H  -0.48340610  -0.63435923   1.83499358
 O   1.96842647  -0.18607286   0.74815105
 C  -2.24970292  -0.92862272   0.64379601
 H  -2.78974734  -0.06456986   1.03714583
 H  -2.51164908  -1.06075999  -0.40770083
 H  -2.56167230  -1.82210342   1.18352998
 O  -0.13710720  -1.90512164   0.24369036
 H   0.80040283  -1.81551858   0.45228585
 N   1.73820245   1.89062673  -0.10564314
 H   1.10890742   2.53025864  -0.58444357
 C   3.17508340   2.09457593  -0.23829536
 H   3.60808968   1.12093245  -0.49630122
 C   3.73977936   2.56152421   1.10566835
 C   3.46377994   3.09217664  -1.35172098
 H   3.13761833   4.08303037  -1.03447331
 H   2.86288046   2.81054956  -2.22034174
 O   4.09150404   3.71813752   1.31370929
 C   4.93624323   3.11280808  -1.75491068
 H   5.27813268   2.09276955  -1.94963842
 H   5.55607126   3.51000751  -0.95138202
 C   5.15340305   3.89675105  -3.04290815
 N   6.39140912   4.44788108  -3.18807471
 H   7.11033653   4.36010861  -2.49482864
 H   6.57852152   4.94970707  -4.03776429
 O   4.30026651   3.98904308  -3.90657122
 N   3.80438144   1.60559440   2.06101702
 H   3.41684945   0.68697779   1.88471047
 C   4.31435862   1.93671691   3.36710395
 H   4.07899630   2.98859656   3.54717359
 C   5.82495845   1.73866401   3.38947618
 C   3.68173750   1.09962755   4.47082072
 H   3.98731559   0.05500923   4.32712949
 O   6.34084458   0.64154998   3.56630342
 C   4.08908057   1.60327331   5.84331522
 H   5.17557400   1.66162467   5.93131425
 H   3.67536655   2.60438554   5.98117654
 H   3.70131196   0.95056815   6.62696965
 O   2.26723949   1.23679410   4.32220007
 H   1.84364076   0.63134796   4.93490845
 N   6.55669253   2.86291984   3.19195454
 H   6.06810301   3.73686671   3.27380570
 C   7.95304848   2.85858881   3.59356472
 H   8.46664655   2.10844015   2.99004241
 C   8.05593558   2.43041440   5.08273165
 C   8.54787402   4.24559757   3.40822997
 H   9.61968431   4.24442182   3.61057772
 H   8.37501793   4.60144543   2.39344322
 H   8.06476923   4.92161065   4.11744601
 O   7.21473151   2.77203975   5.94974911
 N   9.16230922   1.66916893   5.33632205
 H   9.93943056   1.71226662   4.69952603
 C   9.48300916   1.18110468   6.65558496
 H   8.73200568   1.58869544   7.33318537
 C   10.87124402   1.70568135   7.02803841
 C   9.46878986  -0.34651149   6.73979177
 H   10.33278915  -0.74373680   6.19917981
 H   9.59665664  -0.62564998   7.78943211
 O   11.70974152   1.97767122   6.18794239
 C   8.19721408  -1.00845763   6.20178321
 H   8.11927532  -0.77522545   5.13822273
 C   8.30333306  -2.52316410   6.34929015
 H   8.40868679  -2.79522876   7.40254261
 H   9.17000050  -2.90944913   5.80784434
 H   7.41145184  -3.01843403   5.95812120
 C   6.95173735  -0.47730188   6.90006977
 H   6.96150642  -0.75026144   7.95802904
 H   6.04532190  -0.89056184   6.44497832
 H   6.88332543   0.60748445   6.83086746
 N   11.12050245   1.79046507   8.35684850
 H   10.45600534   1.47090032   9.04382720
 C   12.42845728   2.17880157   8.84308507
 H   13.19339850   1.65892702   8.25976472
 C   12.53106694   1.71602958   10.27928817
 C   12.66092733   3.68653035   8.71859423
 H   13.66343761   3.93509286   9.06079938
 H   12.55149532   3.97328345   7.67283613
 H   11.93232667   4.24016242   9.31439672
 O   11.61999684   1.26198071   10.92391028
 O   13.77339370   1.88129089   10.77016261
 H   13.74329154   1.56951996   11.68410439
