21
conf-535
 N  -8.65046275  -0.70430102  -10.09983430
 H  -7.96031755  -1.01646181  -10.78320328
 H  -9.18656098   0.06199508  -10.50499833
 H  -9.27620911  -1.48887056  -9.91906532
 C  -7.99601459  -0.28713941  -8.84940750
 H  -7.27763524   0.50575810  -9.08203775
 C  -7.22944966  -1.47733521  -8.27376946
 C  -8.99265808   0.24755331  -7.82628544
 H  -8.44518475   0.55569984  -6.93110148
 H  -9.64165464  -0.57886151  -7.52143101
 O  -7.39508704  -2.61320198  -8.69281787
 C  -9.86392575   1.41802922  -8.28559559
 H  -10.52043060   1.06312913  -9.08775554
 C  -10.75217231   1.86643653  -7.12991150
 H  -10.14042335   2.24012841  -6.30579799
 H  -11.35990174   1.04046521  -6.75369207
 H  -11.42881808   2.66750130  -7.43690917
 C  -9.04168026   2.58212317  -8.82073034
 H  -8.35449673   2.95281612  -8.05290606
 H  -8.45262293   2.30327853  -9.69654023
 H  -9.69050405   3.41243782  -9.11039924
 N  -6.35144051  -1.16461328  -7.28265199
 H  -6.41804743  -0.26531221  -6.83015671
 C  -5.76729854  -2.18173951  -6.43448059
 H  -6.34366999  -3.10610221  -6.56017439
 C  -5.89482789  -1.66779065  -4.99430973
 C  -4.30229691  -2.50723631  -6.79967188
 H  -3.99783095  -3.30387459  -6.10620184
 O  -6.21441623  -0.51613252  -4.74661697
 C  -4.21120998  -3.05439282  -8.22122822
 H  -4.43816704  -2.27027166  -8.94327546
 H  -4.91405297  -3.87459018  -8.37964623
 H  -3.20038401  -3.41369596  -8.42320841
 C  -3.37293599  -1.31208935  -6.60970105
 H  -3.64858127  -0.51598618  -7.30505677
 H  -2.33890484  -1.59757746  -6.81519631
 H  -3.43101961  -0.91450887  -5.59283920
 N  -5.61737245  -2.58373693  -4.03862168
 H  -5.21339488  -3.47586377  -4.28346895
 C  -5.45817114  -2.22960910  -2.63969969
 H  -5.28326651  -1.15030740  -2.57414668
 C  -4.22995992  -3.02235629  -2.17246773
 C  -6.71385894  -2.55300048  -1.80010441
 H  -6.84679194  -3.63771412  -1.83809877
 O  -3.95132928  -4.09875703  -2.67415883
 C  -6.56935372  -2.11182658  -0.34438189
 H  -6.43655169  -1.02460389  -0.30743734
 H  -5.72990697  -2.58398012   0.16893620
 H  -7.48135032  -2.35349799   0.20722707
 C  -7.94833437  -1.88171870  -2.40043338
 H  -7.81000918  -0.79867515  -2.42105862
 H  -8.14794832  -2.21841150  -3.41690807
 H  -8.82586783  -2.10656345  -1.79132861
 N  -3.50026886  -2.47306789  -1.17616299
 H  -3.77395372  -1.62836242  -0.69788951
 C  -2.40568435  -3.18439606  -0.56454673
 H  -2.67183821  -4.23817308  -0.43341343
 C  -2.14032739  -2.49903338   0.77722087
 C  -1.13800639  -3.13564762  -1.43601916
 H  -0.79797950  -2.09457816  -1.53106863
 H  -1.40111035  -3.51259989  -2.42184921
 O  -2.64781217  -1.43044308   1.05991124
 O  -0.12352292  -3.96188714  -0.87694360
 H   0.61674538  -3.40949179  -0.59946175
 N  -1.27810267  -3.17278040   1.60566291
 H  -0.73282260  -3.86880669   1.10598672
 C  -0.47426111  -2.38232255   2.53870630
 H  -1.10714815  -1.57254758   2.89638464
 C   0.74309456  -1.83706320   1.75883555
 C  -0.03555361  -3.24546965   3.71750621
 H   0.61856531  -4.04077846   3.32615304
 O   1.63756740  -2.63033385   1.36092538
 C   0.70066710  -2.43679892   4.76125575
 H   1.56534209  -1.94011454   4.31221605
 H   0.03050544  -1.68137815   5.17314507
 H   1.03725972  -3.08902254   5.56654395
 O  -1.18041329  -3.80038000   4.35130624
 H  -1.72788956  -4.15327752   3.64157156
 N   0.69315997  -0.50376739   1.48741492
 H  -0.04700407   0.03620632   1.89517569
 C   1.77847007   0.20014044   0.81150941
 H   2.13789394  -0.48858235   0.04172294
 C   2.90256681   0.45321053   1.81949070
 C   1.27547308   1.50101477   0.20973254
 H   2.12133465   2.05281136  -0.20285001
 H   0.85192295   2.13127305   0.99094832
 O   2.87793964   1.39708296   2.60784025
 C   0.23775508   1.25009996  -0.87676316
 H  -0.53679033   0.57131820  -0.50681273
 H   0.69359373   0.76368212  -1.74322057
 C  -0.46388557   2.53027436  -1.31007544
 N  -0.98635653   2.50405631  -2.57005219
 H  -0.88697204   1.71781469  -3.18366179
 H  -1.47370576   3.32318428  -2.88722190
 O  -0.59674266   3.49465495  -0.57878629
 N   3.89760708  -0.46065487   1.79768943
 H   3.73161590  -1.28214693   1.23828912
 C   4.82949431  -0.61420985   2.89994532
 H   4.30201838  -0.33688271   3.82269050
 C   6.02333902   0.33842388   2.75953594
 C   5.32809866  -2.06212299   3.02025540
 H   6.05644568  -2.06562129   3.84060520
 O   7.18654115  -0.02437829   2.92785532
 C   4.24490381  -3.08033974   3.29883861
 H   3.56015550  -2.74248247   4.07976852
 H   3.68695278  -3.27428906   2.38184548
 H   4.69152645  -4.02577173   3.60764092
 O   5.95971235  -2.47054631   1.81175853
 H   6.78671747  -1.98120819   1.75344051
 N   5.72222641   1.61657583   2.44901846
 H   4.75828088   1.91069349   2.55153177
 C   6.76816086   2.62059570   2.48898171
 H   7.56855087   2.28141503   1.82303727
 C   7.34253301   2.72748750   3.90460216
 C   6.21499881   3.96463696   2.03767361
 H   7.00079207   4.72126040   1.99171812
 H   5.76104873   3.87300094   1.04967416
 H   5.45687696   4.29952807   2.74931127
 O   6.64548027   2.64381709   4.90943852
 N   8.68617232   2.93244269   3.93345363
 H   9.16981026   3.24622545   3.10860137
 C   9.42349376   3.03316381   5.17028355
 H   8.68721428   2.98274374   5.97102613
 C   10.14441811   4.38270159   5.18282206
 C   10.44385407   1.90332357   5.32893749
 H   11.25388174   2.06574042   4.61376117
 H   10.88279100   1.97561954   6.32834346
 O   10.63577805   4.85773044   4.17086435
 C   9.88626658   0.48988185   5.13534228
 H   9.50639856   0.41574741   4.11508615
 C   11.00970645  -0.52990084   5.29485238
 H   11.42492580  -0.48038605   6.30452705
 H   11.81693024  -0.33891080   4.58415757
 H   10.64290027  -1.54502995   5.12645710
 C   8.74607698   0.19061000   6.10445268
 H   9.11600937   0.20053652   7.13428917
 H   8.32370525  -0.79803141   5.90356341
 H   7.93830234   0.91676391   6.02698964
 N   10.24849249   4.98339424   6.39212101
 H   9.93113981   4.53588360   7.23865576
 C   11.00562801   6.20856502   6.55087970
 H   11.94878461   6.11948954   6.00387766
 C   11.32219733   6.35196040   8.02298772
 C   10.24642637   7.42564191   6.01625768
 H   10.85867560   8.31863714   6.12324912
 H   10.02138066   7.26142663   4.96238790
 H   9.31014689   7.56602208   6.56013290
 O   10.87427462   5.65116298   8.89442761
 O   12.16568123   7.37469182   8.25594563
 H   12.30448393   7.39533130   9.21184632
