150
152
N         -9.23555       -7.36299       -4.16987
H         -9.58987       -7.91706       -4.95493
H         -9.92574       -7.38799       -3.41365
H         -8.30639       -7.77156       -3.86599
C         -8.84467       -5.95193       -4.56229
H         -9.36203       -5.69393       -5.48787
C         -7.31202       -6.05504       -4.74634
C         -9.16646       -4.96590       -3.42710
H         -8.71009       -4.00448       -3.69530
H         -8.63668       -5.30527       -2.52542
O         -6.73739       -7.03344       -4.25302
C        -10.66307       -4.75256       -3.12193
H        -11.11888       -5.72065       -2.84582
C        -10.79646       -3.82590       -1.90360
H        -10.36661       -2.84090       -2.12135
H        -10.28022       -4.23367       -1.02729
H        -11.84877       -3.68225       -1.64011
C        -11.42722       -4.19032       -4.32891
H        -10.99319       -3.23538       -4.64925
H        -11.42444       -4.86882       -5.19106
H        -12.47449       -4.00865       -4.06890
N         -6.74248       -5.02944       -5.37947
H         -7.31910       -4.21311       -5.58053
C         -5.33883       -4.63840       -5.18894
H         -4.85764       -5.41129       -4.58222
C         -5.43676       -3.30046       -4.41972
C         -4.59968       -4.50593       -6.54424
H         -5.12777       -3.73441       -7.12289
O         -6.42882       -2.57992       -4.57793
C         -3.14216       -4.06074       -6.34856
H         -2.59255       -4.77487       -5.72152
H         -3.05674       -3.07295       -5.88779
H         -2.63370       -4.01998       -7.31673
C         -4.66269       -5.83433       -7.31084
H         -4.14888       -6.62867       -6.75561
H         -4.17168       -5.73398       -8.28395
H         -5.69454       -6.15472       -7.48595
N         -4.41982       -3.01741       -3.59002
H         -3.58205       -3.59220       -3.58165
C         -4.27339       -1.74226       -2.89471
H         -4.93417       -1.01757       -3.38114
C         -2.79934       -1.34612       -3.07540
C         -4.66988       -1.87037       -1.39579
H         -4.04116       -2.66381       -0.97042
O         -1.93058       -2.22049       -3.17452
C         -4.40792       -0.57414       -0.61525
H         -4.94965        0.27285       -1.05710
H         -3.34485       -0.31986       -0.57641
H         -4.75753       -0.68121        0.41652
C         -6.14022       -2.29594       -1.26956
H         -6.80507       -1.54795       -1.71677
H         -6.32631       -3.25194       -1.76894
H         -6.41005       -2.40744       -0.21390
N         -2.53011       -0.02848       -3.11583
H         -3.24843        0.66236       -2.92353
C         -1.17458        0.51344       -3.19828
H         -0.59502       -0.09397       -3.90014
C         -0.50220        0.47020       -1.80977
C         -1.29138        1.96183       -3.69145
H         -1.68388        1.96622       -4.71270
H         -0.29657        2.41809       -3.69740
O         -0.34220        1.50928       -1.14014
O         -2.21227        2.68670       -2.89094
H         -1.78060        2.75945       -2.01860
N         -0.14270       -0.74761       -1.37491
H         -0.26877       -1.56254       -1.97300
C          0.41332       -0.98584       -0.04335
H         -0.05375       -0.27391        0.64644
C          1.93894       -0.74493       -0.06047
C          0.10661       -2.43606        0.38383
H          0.60008       -2.59192        1.35506
O          2.73468       -1.68879       -0.02229
C         -1.38727       -2.70123        0.51857
H         -1.85603       -2.00196        1.21966
H         -1.86957       -2.60796       -0.45902
H         -1.54419       -3.72208        0.87790
O          0.60745       -3.33855       -0.59049
H          1.57758       -3.21745       -0.57516
N          2.33135        0.54211       -0.13415
H          1.61227        1.25835       -0.15940
C          3.73712        0.89839       -0.36154
H          4.16493        0.07665       -0.93812
C          4.45557        0.98887        1.00017
C          3.88991        2.20432       -1.15191
H          4.93837        2.26744       -1.46144
H          3.72107        3.04843       -0.47566
O          4.78472        2.06654        1.50831
C          2.98152        2.36213       -2.37791
H          3.23545        3.30556       -2.88011
H          1.93047        2.46378       -2.08037
C          3.05739        1.22424       -3.39252
N          2.33681        1.44184       -4.55503
H          2.17887        2.39405       -4.85935
H          2.52921        0.78013       -5.29859
O          3.63313        0.16859       -3.19935
N          4.66492       -0.20663        1.59313
H          4.39032       -1.06426        1.11864
C          5.15065       -0.32240        2.96313
H          4.75226        0.52428        3.53527
C          6.69074       -0.23057        2.99697
C          4.66466       -1.64772        3.58323
H          5.08373       -1.69427        4.59982
O          7.40430       -1.21198        3.26647
C          3.14503       -1.73554        3.66321
H          2.73064       -0.89026        4.22383
H          2.71032       -1.74787        2.65871
H          2.86325       -2.66535        4.16548
O          5.11413       -2.74463        2.80152
H          6.08852       -2.71161        2.85843
N          7.18692        0.98931        2.72477
H          6.52383        1.72527        2.48177
C          8.62480        1.27808        2.69249
H          9.12466        0.36773        2.34329
C          9.09332        1.58201        4.13418
C          8.90864        2.44564        1.75596
H          9.98405        2.63537        1.70904
H          8.54058        2.22292        0.74965
H          8.43257        3.35770        2.12694
O          9.35723        2.72590        4.50472
N          9.13047        0.50197        4.95230
H          8.85836       -0.39731        4.56696
C          9.26074        0.64392        6.40640
H          8.82780        1.61822        6.65814
C         10.75892        0.67658        6.79343
C          8.52532       -0.47330        7.15177
H          9.10601       -1.39792        7.05729
H          8.55097       -0.21644        8.21883
O         11.32500       -0.26841        7.33683
C          7.06837       -0.72229        6.71487
H          7.08575       -1.14763        5.70391
C          6.42185       -1.76510        7.63755
H          6.34075       -1.38421        8.66377
H          7.01136       -2.68873        7.66944
H          5.41131       -2.02200        7.29609
C          6.22774        0.56204        6.66813
H          6.21569        1.06185        7.64534
H          5.18714        0.33472        6.40262
H          6.61062        1.27552        5.93005
N         11.38573        1.83583        6.46714
H         10.88623        2.55199        5.94222
C         12.81301        1.98709        6.67232
H         13.06328        1.58893        7.66167
C         13.15138        3.46638        6.64910
C         13.64470        1.22402        5.62117
H         14.71479        1.33786        5.81645
H         13.37954        0.16551        5.67647
H         13.42264        1.59766        4.61571
O         12.42292        4.34244        6.28223
O         14.41687        3.68492        7.06711
H         14.57060        4.64567        6.99234
