150
152
N          0.71449        3.22569       -4.42211
H          1.37586        2.97619       -5.16220
H          1.16871        3.88655       -3.78455
H         -0.15157        3.63235       -4.86880
C          0.15837        2.01739       -3.69184
H          0.85853        1.18728       -3.78151
C         -1.17116        1.74961       -4.43222
C         -0.10497        2.37990       -2.22409
H         -0.62062        1.52542       -1.77608
H         -0.81916        3.21552       -2.20287
O         -1.66983        2.68154       -5.08290
C          1.14779        2.71684       -1.39268
H          1.71316        3.53998       -1.86259
C          0.71854        3.22905       -0.01077
H          0.17887        2.44768        0.54000
H          0.05601        4.09901       -0.08900
H          1.59910        3.52194        0.56415
C          2.10342        1.52439       -1.26109
H          1.62984        0.71518       -0.69378
H          2.40471        1.10591       -2.22819
H          3.00838        1.84158       -0.74207
N         -1.66759        0.53049       -4.25500
H         -1.10597       -0.11410       -3.67485
C         -3.00732        0.13351       -4.65306
H         -3.43275        0.96546       -5.22442
C         -3.84926       -0.05239       -3.36854
C         -2.96847       -1.13472       -5.55010
H         -4.00095       -1.32580       -5.87546
O         -3.38976        0.20932       -2.24968
C         -2.13341       -0.87514       -6.81032
H         -1.07918       -0.72461       -6.55339
H         -2.48270        0.01253       -7.35004
H         -2.19311       -1.73231       -7.48846
C         -2.47111       -2.36900       -4.78291
H         -1.44280       -2.23261       -4.42825
H         -2.48289       -3.24926       -5.43317
H         -3.10556       -2.58996       -3.91843
N         -5.10794       -0.50464       -3.53509
H         -5.41499       -0.80303       -4.45155
C         -5.96683       -0.86674       -2.39738
H         -5.72313       -0.16869       -1.59123
C         -5.59311       -2.31178       -1.99344
C         -7.45582       -0.74178       -2.75910
H         -7.65528       -1.46753       -3.55929
O         -6.10383       -3.28534       -2.53707
C         -8.32409       -1.12302       -1.55091
H         -8.12233       -0.46134       -0.69863
H         -8.14855       -2.15718       -1.24180
H         -9.38490       -1.02489       -1.80252
C         -7.79120        0.67336       -3.24988
H         -7.59971        1.41421       -2.46344
H         -7.20461        0.96222       -4.12850
H         -8.85040        0.73903       -3.51893
N         -4.62995       -2.41191       -1.03831
H         -4.18912       -1.58080       -0.66227
C         -4.16047       -3.69528       -0.55696
H         -5.01860       -4.35086       -0.37395
C         -3.34889       -3.48788        0.71193
C         -3.25155       -4.41330       -1.61044
H         -2.40530       -3.75204       -1.84421
H         -3.85940       -4.53969       -2.50939
O         -2.84934       -2.39648        1.00741
O         -2.82821       -5.68846       -1.17168
H         -1.95462       -5.58574       -0.73924
N         -3.12144       -4.61773        1.44094
H         -3.30246       -5.47631        0.92125
C         -1.95531       -4.64737        2.32535
H         -2.06264       -3.83718        3.05103
C         -0.69217       -4.44159        1.47434
C         -1.94181       -5.98498        3.10081
H         -1.93744       -6.80285        2.35853
O         -0.56874       -4.99000        0.36920
C         -0.72414       -6.12440        4.00441
H          0.20233       -6.17614        3.42501
H         -0.66452       -5.28069        4.70091
H         -0.82085       -7.04126        4.59126
O         -3.08358       -6.05823        3.93631
H         -3.87433       -5.91093        3.39229
N          0.24232       -3.63262        2.00183
H          0.09492       -3.19896        2.90839
C          1.49737       -3.26210        1.36664
H          1.91244       -4.13326        0.84865
C          2.42909       -2.76381        2.47906
C          1.31549       -2.07221        0.37825
H          2.26784       -1.54463        0.25305
H          0.63700       -1.36471        0.86747
O          1.96939       -2.33341        3.53822
C          0.78262       -2.48384       -1.01420
H          0.20073       -3.40648       -0.92516
H          1.60977       -2.68251       -1.69923
C         -0.10698       -1.44014       -1.66584
N         -1.20014       -1.07167       -0.97625
H         -1.51202       -1.56487       -0.14267
H         -1.90438       -0.49096       -1.43442
O          0.16414       -0.96567       -2.78800
N          3.74279       -2.70740        2.15159
H          4.03885       -2.97344        1.21580
C          4.64239       -1.72122        2.76051
H          4.61328       -1.82732        3.84820
C          4.10775       -0.34696        2.31773
C          6.07101       -1.96604        2.22026
H          6.68443       -1.10051        2.51559
O          4.38338        0.10586        1.18946
C          6.68740       -3.24337        2.77083
H          6.80130       -3.18500        3.85825
H          6.06264       -4.10936        2.53041
H          7.67210       -3.39393        2.32062
O          6.02152       -2.08162        0.80053
H          5.66899       -1.22644        0.48327
N          3.25367        0.25654        3.16196
H          2.97500       -0.26958        3.98230
C          2.34637        1.33771        2.73917
H          2.08118        1.13457        1.69492
C          3.06179        2.71045        2.78719
C          1.09958        1.33027        3.61371
H          0.38602        2.07296        3.24833
H          0.63004        0.34116        3.59541
H          1.35167        1.60091        4.64274
O          2.80872        3.55031        3.64224
N          3.96159        2.87567        1.78374
H          4.15706        2.07498        1.19012
C          4.77653        4.05975        1.63253
H          4.58925        4.68275        2.51112
C          4.35121        4.82374        0.36688
C          6.27574        3.69591        1.53988
H          6.45110        3.19546        0.57715
H          6.85791        4.62720        1.51880
O          3.84992        4.26173       -0.61035
C          6.78179        2.79448        2.68207
H          6.23183        1.84475        2.61904
C          8.27270        2.48901        2.48035
H          8.87315        3.40515        2.54588
H          8.46154        2.03401        1.50046
H          8.63863        1.79885        3.24918
C          6.52262        3.40600        4.06629
H          7.00237        4.38997        4.15234
H          6.94036        2.76804        4.85348
H          5.45414        3.52979        4.27235
N          4.61066        6.15170        0.39198
H          5.05521        6.58571        1.19296
C          4.37513        7.00657       -0.75765
H          4.72877        6.49046       -1.65801
C          5.20521        8.26859       -0.57099
C          2.88345        7.34589       -0.93707
H          2.73475        7.96641       -1.82521
H          2.32706        6.41126       -1.04439
H          2.50401        7.88157       -0.06123
O          5.80945        8.55254        0.44023
O          5.16458        9.04775       -1.66787
H          5.69142        9.84671       -1.47398
