70
72
N         -1.72737       -2.03215        3.00898
H         -2.48171       -2.49047        2.50104
H         -0.93648       -2.67094        2.97808
C         -1.38077       -0.77776        2.35933
H         -2.31881       -0.23147        2.19936
C         -0.70080       -0.94471        0.98413
C         -0.51286        0.13832        3.28395
H          0.05463        0.83057        2.64885
H         -1.21073        0.75365        3.86044
O          0.15696       -1.79582        0.76487
C          0.41954       -0.48758        4.30133
C          0.61168        0.09197        5.52552
H          0.11554        0.95389        5.95148
C          1.30730       -1.64382        4.26858
C          1.99157       -1.68291        5.51599
C          1.62069       -2.63892        3.31672
H          1.13570       -2.64312        2.34465
N          1.62148       -0.55494        6.24388
H          3.35150        0.30097        5.40993
C          3.17402       -3.66441        4.90399
H          3.87069       -4.46321        5.13917
C          2.91334       -2.67509        5.85470
H          3.39825       -2.68419        6.82686
C          2.54339       -3.63111        3.64562
H          2.76878       -4.40403        2.91699
N         -1.07714       -0.04138        0.03001
H         -1.93569        0.46996        0.18344
C         -0.59423       -0.10835       -1.36218
H         -0.96690        0.81709       -1.81962
C          0.95128        0.00322       -1.36191
C         -1.09991       -1.31770       -2.19989
H         -0.30947       -2.07433       -2.18274
O          1.68487       -0.70661       -2.02366
C         -1.35460       -0.90006       -3.66691
H         -1.69161       -1.79309       -4.20818
H         -2.20485       -0.19999       -3.68430
C         -2.38006       -1.93456       -1.61762
H         -3.18936       -1.19674       -1.53792
H         -2.73461       -2.73593       -2.27383
H         -2.21283       -2.37398       -0.62974
C         -0.17295       -0.28531       -4.42541
H         -0.45308       -0.09717       -5.46753
H          0.69605       -0.94796       -4.41024
H          0.14330        0.67317       -3.99660
N          1.43539        1.04119       -0.58505
H          0.80158        1.38278        0.12739
C          2.85272        1.08683       -0.26375
H          3.41978        0.84907       -1.16507
C          3.20559        0.01005        0.75721
C          3.20359        2.50658        0.24486
H          3.12456        3.16630       -0.62451
H          2.42082        2.82900        0.94477
O          4.19428       -0.70037        0.71209
C          4.58192        2.72024        0.91342
H          4.87168        3.76100        0.73977
H          5.34939        2.11385        0.41535
C          4.63679        2.49636        2.44791
H          5.30294        3.23868        2.90094
H          3.64300        2.62349        2.89067
N          5.12696        1.15071        2.79358
H          5.65502        0.67857        2.06973
N          4.76047       -0.98296        3.57462
H          4.46012       -1.62513        4.30195
H          4.75811       -1.33645        2.61749
N          4.04717        0.84014        4.83202
H          4.14544        1.81769        5.06067
C          4.62888        0.34085        3.73584
O          2.31904       -0.00982        1.76602
H          1.61615       -0.56122        7.25765
H          2.44783       -0.80456        2.32472
