21
conf-126
 N  -3.79669034  -1.07493845  -3.53822387
 H  -4.31808086  -1.61713673  -2.84908034
 H  -4.15199636  -0.11888079  -3.50339531
 H  -3.98549691  -1.45708958  -4.46327217
 C  -2.35647250  -1.08339506  -3.22812410
 H  -2.01024309  -2.12110366  -3.17189899
 C  -2.14310011  -0.44129594  -1.85409980
 C  -1.53291166  -0.35820735  -4.28784539
 H  -0.51309078  -0.24146233  -3.92474988
 H  -1.93761868   0.64744550  -4.40928873
 O  -3.02120385   0.20077313  -1.29265919
 C  -1.50790788  -1.09025622  -5.62579630
 H  -1.13826199  -2.10964954  -5.48051233
 H  -2.49906817  -1.16540939  -6.07768766
 C  -0.61488062  -0.43023333  -6.63615333
 O  -0.90804056  -0.18650196  -7.77854815
 O   0.60968773  -0.15129976  -6.12886222
 N  -0.91333269  -0.65762708  -1.31266223
 H  -0.16844522  -0.98047862  -1.91124826
 C  -0.44377364   0.10393998  -0.18081286
 H  -1.13500785   0.93196438  -0.00052228
 C   0.92640313   0.66869441  -0.56327744
 C  -0.32900974  -0.72845356   1.09705730
 H   0.13130558  -0.10951617   1.87377427
 H   0.36170782  -1.55409943   0.90730735
 O   1.53064413   0.29621254  -1.55320377
 C  -1.64747354  -1.29374514   1.62764147
 H  -2.13034936  -1.84953037   0.82308022
 C  -1.36040068  -2.26371664   2.76995221
 H  -0.85504872  -1.74782254   3.59058373
 H  -2.28466862  -2.69694248   3.15937268
 H  -0.72050924  -3.08279360   2.43473357
 C  -2.59370628  -0.18758056   2.08709720
 H  -2.13881774   0.38245505   2.90247323
 H  -2.83923720   0.50163351   1.27864649
 H  -3.52809512  -0.61641234   2.45835171
 N   1.39461717   1.60839503   0.30001815
 H   1.05496154   1.61861460   1.25546486
 C   2.77746273   1.99608280   0.30490512
 H   3.39732136   1.22409217  -0.17680249
 C   3.16344307   2.09058500   1.81989389
 C   3.05876837   3.34417071  -0.35888494
 H   4.09114539   3.60610820  -0.12714883
 H   2.42125111   4.11419856   0.08637161
 O   4.33257445   2.36022225   2.09088878
 C   2.83675261   3.30868162  -1.86349865
 H   3.42590147   2.50003748  -2.30470923
 H   1.79160600   3.07707266  -2.07310344
 C   3.19805290   4.62185988  -2.52711451
 H   2.64238748   5.42819342  -2.04330948
 H   2.91181382   4.61095692  -3.58571284
 N   4.64843761   4.87446423  -2.37803253
 H   5.22410684   4.05250083  -2.49631736
 N   4.47893734   7.03047134  -3.27402443
 H   4.89930374   7.94444587  -3.32895795
 H   3.49132238   7.01263861  -3.08104018
 N   6.57576512   6.04462888  -2.90220651
 H   6.99824262   6.95096669  -3.03307999
 H   7.08520312   5.43134432  -2.28049087
 C   5.22310448   5.99665115  -2.83885926
 O   2.21087086   1.85799501   2.60065252
 H   1.11542040   0.24685765  -6.84812632
