21
conf-472
 N  -3.55817169  -1.75410569  -2.87001890
 H  -3.64314961  -2.73017106  -2.58407788
 H  -3.99423360  -1.17338689  -2.14479886
 H  -4.03606318  -1.61173451  -3.75761960
 C  -2.14676926  -1.32749146  -2.90049556
 H  -1.49577995  -2.19253759  -3.07676556
 C  -1.84558619  -0.74915325  -1.51123695
 C  -1.87340194  -0.27495019  -3.97158783
 H  -0.89001519   0.16255581  -3.79462600
 H  -2.59256750   0.53558850  -3.86832294
 O  -2.74431318  -0.43033573  -0.74498376
 C  -1.92253492  -0.82391159  -5.39285502
 H  -1.17297559  -1.60333560  -5.54614119
 H  -2.89268146  -1.28294899  -5.61338113
 C  -1.71536688   0.25445109  -6.42269022
 O  -1.81420800   1.44030590  -6.23314344
 O  -1.42553699  -0.26484081  -7.63843942
 N  -0.54126112  -0.57240536  -1.21301209
 H   0.19530718  -0.86506980  -1.83592706
 C  -0.13684046  -0.00522197   0.05729302
 H  -0.82666775   0.80837150   0.29036569
 C   1.28240907   0.51832370  -0.14626951
 C  -0.20327310  -1.05425512   1.17446487
 H   0.48419433  -1.86419652   0.91855608
 H  -1.21187908  -1.47052480   1.15540213
 O   2.06454961  -0.05686837  -0.88484520
 C   0.10929626  -0.55808496   2.58758687
 H   1.11818200  -0.13299254   2.59357262
 C  -0.87286005   0.51697369   3.03692485
 H  -1.88950852   0.11498137   3.05764185
 H  -0.62237383   0.87371895   4.04008440
 H  -0.86274014   1.38648672   2.37270593
 C   0.09411608  -1.73964244   3.55399212
 H  -0.89325029  -2.20692226   3.56549615
 H   0.82660135  -2.49468387   3.26101866
 H   0.33103501  -1.41804358   4.57031680
 N   1.60177154   1.63002485   0.56931019
 H   1.08523896   1.88260778   1.39895714
 C   2.96064544   2.07555514   0.71723971
 H   3.66011148   1.23619417   0.59362770
 C   3.05236345   2.62381813   2.17275814
 C   3.37023854   3.20433469  -0.22655794
 H   4.34662225   3.55289854   0.11290072
 H   2.68218763   4.04756490  -0.13255213
 O   4.16442366   2.97294267   2.57014924
 C   3.44761705   2.75454284  -1.67463599
 H   4.07802383   1.86187102  -1.75026923
 H   2.45776833   2.46483719  -2.01926003
 C   4.00864416   3.83624985  -2.59263928
 H   3.96635518   3.50133836  -3.62929784
 H   5.05816791   4.03517820  -2.36674774
 N   3.23832354   5.09616228  -2.53263508
 H   2.29239711   4.97660371  -2.86939876
 N   4.51089937   6.12189753  -0.85003203
 H   4.51170658   6.57818673   0.04918737
 H   5.24843698   5.45322938  -0.99721133
 N   2.26801780   6.69815412  -1.11303284
 H   2.46091660   7.57040218  -0.63850385
 H   1.48727480   6.75929237  -1.75396105
 C   3.34744841   5.96737453  -1.51310135
 O   1.96330115   2.64384291   2.79234906
 H  -1.33376635   0.49034657  -8.23442274
