21
conf-649
 N  -0.19028261  -2.78675752  -3.89201010
 H   0.53864993  -2.16875541  -4.25414352
 H   0.26560345  -3.52442096  -3.34903864
 H  -0.68214840  -3.21392473  -4.67468036
 C  -1.12413465  -2.07051135  -2.99395205
 H  -1.45680746  -1.14716828  -3.47849782
 C  -0.38228346  -1.74454774  -1.70350221
 C  -2.33777615  -2.94301655  -2.68273641
 H  -1.99074087  -3.82531934  -2.14450461
 H  -2.75083755  -3.28537752  -3.63579838
 O   0.30557604  -2.59496107  -1.15105079
 C  -3.42057680  -2.23894673  -1.87186612
 H  -3.02702245  -1.94609274  -0.89198184
 H  -3.77332679  -1.33329219  -2.36670520
 C  -4.61764977  -3.11027864  -1.61917837
 O  -5.76629848  -2.78856969  -1.78361252
 O  -4.26504479  -4.32678315  -1.14261931
 N  -0.58885791  -0.49342327  -1.22370108
 H  -1.11915596   0.14131236  -1.79440743
 C  -0.03445967   0.06763494   0.00641160
 H  -0.66878979   0.93243705   0.22059514
 C   1.39413890   0.57731115  -0.20479327
 C  -0.08777290  -0.89312774   1.19215656
 H   0.52725533  -1.75904591   0.97393696
 H  -1.11897687  -1.24664030   1.28172885
 O   2.33110750  -0.15027304  -0.49638383
 C   0.35755458  -0.30808641   2.53765104
 H   1.42411341  -0.06357138   2.45273954
 C  -0.39566995   0.96089067   2.92895303
 H  -1.47711217   0.78992675   2.90129775
 H  -0.12983452   1.25741925   3.94651081
 H  -0.16634307   1.80808907   2.27976140
 C   0.20402821  -1.37764692   3.61826069
 H  -0.85065251  -1.62724480   3.75560578
 H   0.73837915  -2.28964870   3.34349431
 H   0.59963390  -1.02952311   4.57471385
 N   1.55472845   1.90625741   0.00808699
 H   0.88036518   2.47955634   0.49637285
 C   2.86950754   2.47703273   0.11870214
 H   3.50489898   1.80990010   0.72325689
 C   2.65558909   3.80488169   0.90146830
 C   3.53230148   2.69540882  -1.24288563
 H   3.08227582   3.56312617  -1.73129563
 H   3.28799602   1.82077798  -1.84618169
 O   3.62608740   4.55305036   1.04998457
 C   5.04054048   2.85892309  -1.11244881
 H   5.25733838   3.62586826  -0.36580652
 H   5.46855645   1.92556383  -0.73786690
 C   5.72411204   3.22334398  -2.41517734
 H   6.78821700   3.39142360  -2.22806551
 H   5.30939878   4.15812831  -2.81205374
 N   5.56985028   2.12578147  -3.39112078
 H   4.69520926   1.62585204  -3.31360827
 N   6.84463855   3.23918861  -5.00655265
 H   7.41332685   3.14522415  -5.83257205
 H   7.21686843   3.83000001  -4.28201007
 N   5.67056711   1.28212703  -5.54945105
 H   6.20561555   1.23093134  -6.40265166
 H   5.37179497   0.38454796  -5.19136689
 C   6.04766173   2.21593094  -4.64101983
 O   1.49455249   3.96359787   1.33636890
 H  -5.08839052  -4.80616250  -0.98871572
