21
conf-448
 N  -2.47296800  -0.86515461  -4.09063440
 H  -3.30284001  -1.17698804  -3.58301982
 H  -2.52286375   0.15376706  -4.17492969
 H  -2.48075473  -1.27325492  -5.02309475
 C  -1.22493262  -1.19815370  -3.36651133
 H  -1.25434317  -2.24504457  -3.05079712
 C  -1.12689103  -0.29517829  -2.14523881
 C  -0.01375464  -0.97103879  -4.27096793
 H   0.03842886   0.09295632  -4.50175022
 H  -0.20148644  -1.49811080  -5.21008446
 O  -1.43330981   0.88574885  -2.20461670
 C   1.30551289  -1.43585299  -3.67066434
 H   1.52371165  -0.88465098  -2.75175223
 H   1.28051624  -2.49661219  -3.41243113
 C   2.48176154  -1.23862719  -4.57696295
 O   3.38392414  -2.02261520  -4.72073268
 O   2.45355231  -0.04494026  -5.21267509
 N  -0.68765050  -0.88893336  -0.99865936
 H  -0.18416705  -1.75655839  -1.10137976
 C  -0.24592804  -0.06687208   0.11616796
 H  -0.87499344   0.82094194   0.11537358
 C   1.21024347   0.34101267  -0.10336264
 C  -0.39975722  -0.83580282   1.42983360
 H   0.25079083  -1.71306480   1.37431657
 H  -1.42863644  -1.19818738   1.47876645
 O   2.02242868  -0.42477160  -0.61923003
 C  -0.09847099  -0.06026131   2.71500525
 H   0.93651040   0.29899601   2.67347203
 C  -1.01635346   1.14461878   2.88175144
 H  -2.06000545   0.82261056   2.93795463
 H  -0.77479831   1.68755074   3.80020058
 H  -0.92061990   1.85337953   2.05378390
 C  -0.21889869  -0.99814298   3.91210907
 H  -1.23779265  -1.38442986   3.98866935
 H   0.46178228  -1.84690747   3.81924342
 H   0.01858576  -0.47833342   4.84271693
 N   1.55034153   1.56497352   0.36058157
 H   1.01572811   2.04623619   1.06901030
 C   2.93054979   1.95457858   0.46786698
 H   3.53672655   1.11262328   0.82675961
 C   2.94149840   3.06046772   1.55913625
 C   3.54019146   2.45110691  -0.83777515
 H   3.46024236   1.62202231  -1.54368293
 H   4.59904387   2.63648464  -0.65472802
 O   4.00066670   3.65426340   1.76250760
 C   2.86519096   3.70158423  -1.38852278
 H   1.78162252   3.57102505  -1.40706728
 H   3.07445076   4.54333777  -0.72812350
 C   3.32612210   4.04372478  -2.79868402
 H   2.80151262   4.92655657  -3.17408252
 H   3.07437416   3.22492856  -3.47723877
 N   4.78141071   4.25038732  -2.94273954
 H   5.32841981   3.40712659  -3.03137300
 N   4.74055208   6.38560183  -2.00675442
 H   5.19786630   7.02004150  -1.36987436
 H   3.74836494   6.27195168  -1.85742893
 N   6.78423320   5.28769829  -2.33261244
 H   7.22810239   6.19617882  -2.30066939
 H   7.26015929   4.63224276  -2.94203509
 C   5.42649581   5.30042896  -2.42193642
 O   1.84648346   3.20300391   2.15100711
 H   3.25323502  -0.01317803  -5.75313058
