21
conf-535
 N   0.17881200  -3.11286273  -3.29646089
 H   0.92349334  -2.45293199  -3.53274931
 H   0.50754237  -3.71365780  -2.53495370
 H  -0.01808106  -3.69703836  -4.11026411
 C  -1.03117080  -2.40798158  -2.81776714
 H  -1.25789955  -1.58156790  -3.50120064
 C  -0.70779067  -1.84363508  -1.43941872
 C  -2.24164656  -3.32845413  -2.72405463
 H  -3.04541358  -2.80892748  -2.20421819
 H  -1.97681093  -4.18941360  -2.11188587
 O  -0.19973867  -2.54512413  -0.57539404
 C  -2.74991784  -3.77443549  -4.09383790
 H  -2.99039115  -2.89389738  -4.69790436
 H  -2.00679887  -4.35489695  -4.64388390
 C  -3.99153010  -4.61456276  -4.00988141
 O  -4.17029691  -5.66025356  -4.58006258
 O  -4.93785406  -4.04767286  -3.22417469
 N  -1.05857365  -0.53853422  -1.24389620
 H  -1.28366029  -0.03852371  -2.08598604
 C  -0.37100266   0.28054081  -0.25038135
 H  -0.84831860   1.26632518  -0.28721039
 C   1.09688628   0.50268956  -0.65838366
 C  -0.47855285  -0.22197698   1.18773360
 H  -0.07797605   0.56036804   1.84346593
 H   0.15404774  -1.10085332   1.31940620
 O   1.62642126  -0.04910878  -1.60718327
 C  -1.90035217  -0.55170335   1.64017824
 H  -2.26088609  -1.37767365   1.02381743
 C  -1.87446079  -1.01863112   3.09302798
 H  -1.52280248  -0.21626781   3.74667697
 H  -2.87141856  -1.31497867   3.42786596
 H  -1.20932695  -1.87612000   3.21663228
 C  -2.84341324   0.63272078   1.46938689
 H  -2.49941712   1.48602643   2.06375242
 H  -2.91710125   0.94654016   0.42678271
 H  -3.84821330   0.37096923   1.81097974
 N   1.74475644   1.40123191   0.12404546
 H   1.41327464   1.68241075   1.03656695
 C   3.15749626   1.62880545   0.01527284
 H   3.68875396   0.67708105  -0.13623717
 C   3.55917992   2.22177854   1.39888477
 C   3.51036203   2.57159748  -1.13904640
 H   3.14460283   3.57308216  -0.90467361
 H   2.95006541   2.22396113  -2.00827946
 O   4.74879258   2.50533951   1.57948390
 C   5.00138614   2.58128474  -1.44390060
 H   5.55785158   2.92697934  -0.57232191
 H   5.33244806   1.55690918  -1.64542802
 C   5.36284077   3.43384034  -2.65154545
 H   4.89793024   3.02616426  -3.55154749
 H   6.44211472   3.41209921  -2.82940918
 N   4.91475576   4.83720764  -2.57422360
 H   3.95499068   4.99677395  -2.84464058
 N   6.46556007   5.38427886  -0.92031717
 H   6.98623341   6.11269996  -0.45840101
 H   6.99147554   4.56667247  -1.18064601
 N   4.76703635   6.89422494  -1.50643495
 H   5.27092918   7.61766854  -1.01471501
 H   4.19783159   7.22542720  -2.27432870
 C   5.40002652   5.70586557  -1.67728399
 O   2.61559871   2.33017717   2.21388690
 H  -5.69828913  -4.64135948  -3.24692050
