21
conf-364
 N  -3.69365488  -0.91577875  -3.84148314
 H  -4.34521621  -1.34089810  -3.18071512
 H  -3.89211808   0.08576325  -3.86635443
 H  -3.87004547  -1.30619169  -4.76539306
 C  -2.29817695  -1.12800588  -3.41737143
 H  -2.12781410  -2.19947614  -3.26639371
 C  -2.06458617  -0.40901595  -2.08717650
 C  -1.29190233  -0.61611027  -4.45028390
 H  -0.29216630  -0.67563528  -4.02208613
 H  -1.48542719   0.44148713  -4.62710605
 O  -2.79251155   0.49374375  -1.69856454
 C  -1.32551958  -1.38317482  -5.76158695
 H  -1.20539810  -2.45502117  -5.58399511
 H  -2.26934465  -1.25252704  -6.29301587
 C  -0.22313310  -0.98028998  -6.69953361
 O   0.83376399  -0.48323772  -6.37101478
 O  -0.50742314  -1.25834987  -7.98287243
 N  -0.97914941  -0.84911109  -1.38690357
 H  -0.33376718  -1.45048058  -1.87289245
 C  -0.32540463   0.02852904  -0.43975677
 H  -0.83679738   0.99334051  -0.44682038
 C   1.09868976   0.22107448  -0.96488560
 C  -0.31706631  -0.52247969   0.98003900
 H   0.26140527   0.15775024   1.61328530
 H   0.21723791  -1.47562088   0.97135149
 O   1.58551393  -0.54274546  -1.78921445
 C  -1.70602544  -0.71462074   1.59569434
 H  -2.29652110  -1.33853534   0.92076472
 C  -1.57517421  -1.44063304   2.93089059
 H  -0.97572314  -0.84893292   3.62784049
 H  -2.55430566  -1.61000253   3.38510373
 H  -1.09087729  -2.41141769   2.80350251
 C  -2.43109471   0.61601797   1.77681659
 H  -1.85742606   1.26887372   2.44185748
 H  -2.58002567   1.13541491   0.82938865
 H  -3.41284697   0.45643658   2.23066461
 N   1.76323218   1.27767753  -0.43643290
 H   1.48473930   1.68915397   0.44657996
 C   3.17261822   1.46715759  -0.63707586
 H   3.68803333   0.49788628  -0.69637831
 C   3.66322153   2.19828538   0.65046100
 C   3.52648620   2.30427821  -1.86410382
 H   4.60376013   2.49320636  -1.82913439
 H   3.02741347   3.27655886  -1.78859609
 O   4.85984983   2.48340962   0.70907755
 C   3.14726650   1.65959853  -3.19581692
 H   2.07003199   1.46565288  -3.23035124
 H   3.35998649   2.38081913  -3.98746239
 C   3.91229709   0.38550139  -3.51682208
 H   3.66175333  -0.41665901  -2.82171511
 H   4.98486094   0.59270445  -3.44011233
 N   3.58700872  -0.03975017  -4.89046140
 H   2.59941358  -0.03182037  -5.12992007
 N   5.46522517  -1.44005977  -5.09719006
 H   6.14152523  -1.72214904  -5.79263845
 H   5.86139957  -0.99850118  -4.28111635
 N   3.88084235  -1.33410525  -6.78766186
 H   4.19123402  -2.24013737  -7.10223256
 H   2.92439337  -1.09415506  -7.02734748
 C   4.30288039  -0.93716865  -5.57150788
 O   2.77073262   2.39237880   1.50905869
 H   0.25664978  -0.97481674  -8.50099662
