21
conf-234
 N  -3.05297962  -1.78788952  -3.82586825
 H  -3.39766867  -2.52435937  -3.20727736
 H  -3.65772598  -0.97154944  -3.70834659
 H  -3.12415065  -2.10743564  -4.78975858
 C  -1.66458224  -1.39443380  -3.49745239
 H  -1.04196155  -2.29195918  -3.41493816
 C  -1.65950977  -0.65104640  -2.16588155
 C  -1.09366469  -0.50118656  -4.60137786
 H  -1.74587477   0.36830823  -4.69808036
 H  -1.15206800  -1.05957464  -5.53722784
 O  -2.54684112   0.13851973  -1.86876072
 C   0.34334401  -0.04865676  -4.35890838
 H   0.41895066   0.58962988  -3.48106075
 H   0.98959963  -0.91451342  -4.18385609
 C   0.91193487   0.71723922  -5.51969353
 O   1.45691225   1.79246344  -5.45383852
 O   0.77831508   0.04870201  -6.68614532
 N  -0.60210843  -0.92707792  -1.34767936
 H   0.19479500  -1.40338527  -1.74423310
 C  -0.22419482  -0.00507188  -0.29685692
 H  -0.81912174   0.90532304  -0.41282040
 C   1.25362717   0.32031641  -0.51710152
 C  -0.44652198  -0.53184185   1.11956877
 H  -0.02033568   0.21121130   1.80507858
 H   0.12331307  -1.45218278   1.27066074
 O   1.97866481  -0.36845894  -1.21635625
 C  -1.91510418  -0.76504862   1.50244924
 H  -2.52615604  -0.02897692   0.97364500
 C  -2.37843456  -2.16868253   1.12171415
 H  -1.83127383  -2.90865554   1.71334074
 H  -3.44398956  -2.29151637   1.32998869
 H  -2.21024770  -2.39487995   0.07069777
 C  -2.09996637  -0.55027814   3.00462680
 H  -1.44753567  -1.22168327   3.56959561
 H  -1.86090033   0.47606200   3.29060367
 H  -3.13120009  -0.74828742   3.30578445
 N   1.69404493   1.41739762   0.14354322
 H   1.21010387   1.80305335   0.94438711
 C   3.09307241   1.73221277   0.20777277
 H   3.67883366   0.82428867   0.39965195
 C   3.23461332   2.67686954   1.43671722
 C   3.64117753   2.38776005  -1.05617588
 H   3.46608022   1.68569632  -1.87201858
 H   4.72343258   2.48793896  -0.93136255
 O   4.33189394   3.20279293   1.62709449
 C   3.01651987   3.74411651  -1.37789372
 H   1.93172687   3.67561457  -1.34349065
 H   3.31294149   4.47615232  -0.62969426
 C   3.44965512   4.23110068  -2.75152114
 H   3.07110508   3.54675716  -3.51067442
 H   4.54206570   4.22256868  -2.82935928
 N   2.94297436   5.56666400  -3.11900170
 H   1.97992953   5.59744313  -3.42438698
 N   4.42989545   6.66964047  -1.69514336
 H   4.93790290   7.51743632  -1.49934276
 H   4.95745145   5.81527154  -1.62643299
 N   2.74209245   7.85469498  -2.81960619
 H   3.19757305   8.71635951  -2.55713781
 H   2.21618868   7.89902491  -3.68236999
 C   3.39408444   6.69641092  -2.55480012
 O   2.19649328   2.77094903   2.13207039
 H   1.18448540   0.60414994  -7.36318347
