21
conf-879
 N  -3.19271772  -1.38221772  -3.41656374
 H  -3.70870988  -1.25130895  -2.54013811
 H  -3.33109196  -0.54432111  -3.98243100
 H  -3.53326208  -2.19528221  -3.92393148
 C  -1.77004742  -1.52607032  -3.06217031
 H  -1.56466698  -2.57405578  -2.82203107
 C  -1.53399267  -0.72435460  -1.77756744
 C  -0.83482825  -1.14632164  -4.20941328
 H   0.18473169  -1.41361691  -3.91945107
 H  -0.86585122  -0.06817214  -4.37670516
 O  -2.47671228  -0.33555791  -1.10390828
 C  -1.17878459  -1.87773656  -5.50883467
 H  -2.11964336  -1.51668883  -5.92811883
 H  -0.38878353  -1.71303591  -6.24510932
 C  -1.26410790  -3.34705620  -5.22075179
 O  -0.35749513  -4.01313348  -4.78304380
 O  -2.49664563  -3.85799832  -5.44229701
 N  -0.25345835  -0.52361391  -1.41902772
 H   0.53250501  -0.79554841  -1.98894620
 C   0.08781208   0.21961941  -0.22890567
 H  -0.58002130   1.08294496  -0.15657353
 C   1.53296581   0.66880892  -0.44135684
 C  -0.08394904  -0.63419900   1.03288798
 H   0.62983304  -1.46172433   0.98940840
 H  -1.08195619  -1.07489619   0.97160600
 O   2.27007318   0.09174020  -1.22052686
 C   0.04256278   0.08799703   2.37693458
 H   1.06370000   0.45959297   2.49314478
 C  -0.91637925   1.27058934   2.46876330
 H  -1.93964583   0.94639903   2.25094234
 H  -0.89790766   1.70438530   3.47180561
 H  -0.65241875   2.06789011   1.76829855
 C  -0.21777180  -0.91007899   3.50306570
 H  -1.23932956  -1.29134839   3.44172061
 H   0.46733018  -1.75859830   3.44239332
 H  -0.08671288  -0.44256154   4.48123865
 N   1.92932005   1.71612641   0.31339975
 H   1.42074782   2.06770226   1.10849839
 C   3.30677934   2.12402976   0.39619347
 H   3.95914099   1.24826686   0.52313447
 C   3.36031263   2.99684362   1.68169240
 C   3.77116316   2.90248273  -0.83630904
 H   3.31519186   3.89355278  -0.83756159
 H   3.39622001   2.36757857  -1.70583117
 O   4.44158930   3.50836875   1.98672324
 C   5.29278661   3.00536303  -0.88376998
 H   5.67308194   3.22699508   0.11381006
 H   5.70015320   2.03026465  -1.16776998
 C   5.79113278   4.08253699  -1.83770417
 H   6.88164188   4.05911091  -1.87798055
 H   5.50913138   5.06415465  -1.45306081
 N   5.29953540   3.91549339  -3.22220355
 H   5.45440305   2.99197054  -3.60165169
 N   3.75626253   5.68351309  -3.16857778
 H   3.09235443   6.23899619  -3.68400906
 H   4.36905636   6.21198848  -2.56580420
 N   3.61955291   4.04442667  -4.83145856
 H   3.05410441   4.67766806  -5.37712633
 H   4.12997347   3.36827890  -5.38339473
 C   4.24670626   4.55952585  -3.74206862
 O   2.27913749   3.08307812   2.30091256
 H  -2.45091447  -4.79834144  -5.22967887
