21
conf-197
 N  -4.07412175  -1.12192388  -3.64312232
 H  -4.68470122  -1.26788819  -2.83894882
 H  -4.15278432  -0.13973460  -3.90867142
 H  -4.41144773  -1.69419249  -4.41524404
 C  -2.67627157  -1.43645722  -3.30093680
 H  -2.62331700  -2.46278985  -2.92164342
 C  -2.21629475  -0.49957537  -2.18195486
 C  -1.74402900  -1.32075979  -4.50356100
 H  -0.71340919  -1.38997951  -4.15870803
 H  -1.86136049  -0.32532635  -4.93408687
 O  -2.85834287   0.48880807  -1.85305956
 C  -1.99628828  -2.39392061  -5.55776605
 H  -1.90847979  -3.38460318  -5.10211063
 H  -2.99538878  -2.32324367  -5.99263986
 C  -1.01870263  -2.33423942  -6.69550866
 O  -1.30225807  -2.35196430  -7.86591575
 O   0.26427526  -2.28536245  -6.26351739
 N  -1.05357174  -0.87381271  -1.57848434
 H  -0.44909636  -1.51144097  -2.07555958
 C  -0.30349271   0.05592173  -0.76619669
 H  -0.74175969   1.05282016  -0.87014003
 C   1.11489497   0.07499849  -1.34309887
 C  -0.27933168  -0.32167499   0.71234176
 H   0.38141620   0.37592929   1.23738021
 H   0.17065472  -1.31317415   0.80735774
 O   1.47787162  -0.71592423  -2.19638549
 C  -1.64371625  -0.31986536   1.40409610
 H  -2.32076673  -0.95299089   0.82951137
 C  -1.50628999  -0.91484431   2.80239637
 H  -0.81972742  -0.31541814   3.40613524
 H  -2.47128714  -0.94377632   3.31383470
 H  -1.11946518  -1.93515088   2.75625741
 C  -2.23636851   1.08507190   1.47400938
 H  -1.57523499   1.74376169   2.04484552
 H  -2.38099088   1.51624307   0.48294378
 H  -3.20653397   1.06503839   1.97719149
 N   1.92188757   1.02451894  -0.82712878
 H   1.72352910   1.50230373   0.04157457
 C   3.33309434   1.03896234  -1.10187882
 H   3.73159625   0.01354325  -1.05121077
 C   3.94261086   1.87591080   0.05890806
 C   3.65864660   1.61656645  -2.47864862
 H   3.43935457   2.68472891  -2.49998587
 H   2.97182597   1.15293298  -3.18064588
 O   5.15650782   2.10471584   0.02608062
 C   5.09344660   1.34370270  -2.90758963
 H   5.79104644   1.82848039  -2.22091109
 H   5.28547523   0.26598435  -2.83775606
 C   5.35661038   1.77846527  -4.34446830
 H   4.76737954   1.17043355  -5.03138473
 H   6.40562983   1.63086111  -4.60033292
 N   5.06131545   3.20974366  -4.57972272
 H   5.62045532   3.80239172  -3.97839682
 N   2.87533257   2.86385139  -5.32382377
 H   1.96528451   3.24123950  -5.52868228
 H   3.20435108   2.16704363  -5.97528877
 N   3.41969828   4.84357631  -4.19224194
 H   2.59390185   5.28935873  -4.56691147
 H   4.14706832   5.49594163  -3.93382522
 C   3.79498561   3.64991613  -4.72412198
 O   3.12444749   2.21498812   0.94278033
 H   0.81536683  -2.27073800  -7.05599027
