21
conf-123
 N  -0.59888711  -4.03352440   3.04827842
 H  -0.75259878  -4.67318159   2.27481040
 H   0.41059169  -3.98076576   3.12160332
 C  -1.11330632  -2.72915127   2.65904450
 H  -0.80104426  -1.99860089   3.41704350
 C  -0.55032187  -2.27011043   1.30436857
 C  -2.63898630  -2.75012776   2.62746644
 H  -2.95357323  -3.50222611   1.90157587
 H  -3.01350630  -1.79109243   2.27748341
 O   0.09955750  -3.01814229   0.59176496
 C  -3.23227460  -3.06027768   3.99975899
 H  -2.92344149  -2.29625054   4.71871577
 H  -2.88991329  -4.02292831   4.37775747
 C  -4.73240188  -3.08738587   3.98954164
 O  -5.42209389  -3.97212477   4.42706678
 O  -5.25477375  -1.96527518   3.44050353
 N  -0.88269677  -0.99164412   0.96175605
 H  -1.24534267  -0.42668897   1.70910354
 C  -0.19108533  -0.24121707  -0.07788500
 H  -0.80407022   0.64992917  -0.25344266
 C   1.18471070   0.22218610   0.42771912
 C  -0.10201385  -0.99698250  -1.41598190
 H   0.57995047  -1.83550031  -1.32361738
 H  -1.09548131  -1.40398194  -1.60040633
 O   1.79331786  -0.31630485   1.33207918
 C   0.31839402  -0.10349690  -2.55526680
 C   1.57235400  -0.23099620  -3.15219883
 H   2.25645688  -0.99447628  -2.79818032
 C  -0.52456566   0.90986924  -3.00581557
 H  -1.49883141   1.02091912  -2.53825951
 C   1.97683140   0.62987732  -4.16797095
 H   2.95639381   0.53740846  -4.62024140
 C  -0.12595524   1.78797453  -4.00745989
 H  -0.79334154   2.58047628  -4.32655184
 O   1.57166786   2.46687750  -5.59558198
 H   0.89297620   3.12374511  -5.77393285
 C   1.12914660   1.64346056  -4.59470466
 N   1.68328969   1.33110534  -0.20714246
 H   1.26744424   1.58136828  -1.09277169
 C   3.11160179   1.60208291  -0.08844925
 H   3.67465241   0.67006122  -0.19268521
 C   3.45170186   2.13830423   1.27451934
 C   3.51744011   2.58420248  -1.18311662
 H   3.11868213   2.18079241  -2.12093286
 H   3.01062954   3.53831797  -1.00226562
 O   4.50871299   2.14409776   1.81174530
 C   5.01404368   2.78884899  -1.32886558
 H   5.48854184   1.81060268  -1.46248827
 H   5.43880121   3.21906524  -0.42481609
 C   5.34008216   3.66964701  -2.52698590
 H   4.91850490   3.21708276  -3.43305690
 H   4.85275698   4.64292972  -2.40179500
 C   6.82751961   3.88746433  -2.72798026
 H   7.32413368   2.91619344  -2.81422478
 H   6.99591752   4.41616242  -3.67670510
 N   7.40197456   4.58512531  -1.57181001
 H   7.03685576   5.53028169  -1.52426196
 H   8.40391987   4.67736099  -1.68234919
 O   2.31946924   2.71618290   1.93023495
 H   1.61679188   3.09133249   1.34242937
 H   2.55501219   3.40741178   2.58460164
 H  -6.21363190  -2.06137802   3.49391903
