21
conf-34
 N  -0.43226906  -3.91226707   3.29632671
 H  -0.26847926  -4.55939787   2.53022913
 H   0.49457226  -3.68422118   3.63773204
 C  -1.05052890  -2.71440325   2.75224427
 H  -1.02987855  -1.94269863   3.52737638
 C  -0.30131168  -2.19476698   1.51676300
 C  -2.51212291  -2.98796480   2.40291209
 H  -2.53865379  -3.78090451   1.64957268
 H  -2.96020669  -2.10032746   1.95500599
 O   0.49542525  -2.88821220   0.90372268
 C  -3.34098058  -3.42301200   3.61376897
 H  -2.91746716  -4.31993453   4.06954768
 H  -4.36105227  -3.65479455   3.29374471
 C  -3.42259123  -2.36991168   4.67854499
 O  -3.12006373  -2.50751397   5.83803801
 O  -3.90037893  -1.19723059   4.19466800
 N  -0.64447990  -0.93160297   1.14510864
 H  -1.19267014  -0.39834582   1.79625792
 C   0.05481744  -0.17383400   0.11490070
 H  -0.59502341   0.67888945  -0.11173716
 C   1.37381626   0.38409985   0.65413090
 C   0.23794609  -0.96323630  -1.19385805
 H   0.99365878  -1.73157726  -1.06719872
 H  -0.70851898  -1.47078366  -1.37565356
 O   2.02055788  -0.14479030   1.56238072
 C   0.57656044  -0.07536648  -2.36091940
 C  -0.37190468   0.80195454  -2.88114479
 H  -1.36323144   0.82024535  -2.43846853
 C   1.84766248  -0.08407707  -2.93211216
 H   2.60843691  -0.74185424  -2.52823450
 C  -0.06775735   1.65289293  -3.93719298
 H  -0.80488777   2.33541129  -4.33722284
 C   2.16926150   0.76554462  -3.99192565
 H   3.17983220   0.77198723  -4.38899116
 O   1.45235637   2.49234080  -5.53587074
 H   2.36213945   2.37277130  -5.82150465
 C   1.20687480   1.63594196  -4.49536761
 N   1.81297842   1.51293774   0.04890602
 H   1.31693022   1.80752941  -0.77872916
 C   3.22641922   1.90495924   0.12481556
 H   3.82286666   0.98250977   0.10637734
 C   3.54933446   2.56123536   1.44246475
 C   3.60454254   2.77216296  -1.07733708
 H   3.08775042   2.34993372  -1.94492548
 H   3.21331982   3.78387869  -0.94662397
 O   4.39645198   3.36391293   1.66865534
 C   5.09206665   2.81014677  -1.38285168
 H   5.46265375   1.78224940  -1.45390855
 H   5.63948485   3.28380327  -0.56646133
 C   5.37677643   3.52431187  -2.69478861
 H   4.82467281   3.03573729  -3.50746698
 H   5.01529759   4.55383783  -2.64404109
 C   6.84646014   3.53470454  -3.06072411
 H   7.40601660   4.06345854  -2.28282731
 H   7.21869731   2.49943173  -3.08261094
 N   7.04026894   4.24579339  -4.32349579
 H   6.61355778   3.72372620  -5.07937927
 H   8.02599270   4.30722861  -4.54583890
 O   2.75408582   2.07087490   2.53549570
 H   2.50445952   1.08231515   2.34506373
 H   3.28904556   2.19145159   3.34608225
 H  -3.93811616  -0.59090630   4.94459072
