21
conf-472
 N  -0.08567054  -1.30403462   3.93911947
 H   0.28178330  -2.25003158   3.88294778
 H   0.72894330  -0.71479968   4.06736607
 C  -0.72226915  -0.99873161   2.66657999
 H  -0.92395002   0.07698186   2.62418014
 C   0.14944101  -1.37956361   1.46590778
 C  -2.05496394  -1.73716843   2.56319624
 H  -1.85597760  -2.80886591   2.62878240
 H  -2.50477940  -1.56045926   1.57919828
 O   1.01575182  -2.23493622   1.54049332
 C  -3.04452404  -1.34815934   3.65421321
 H  -3.33084104  -0.29734573   3.58484458
 H  -2.60349182  -1.48737488   4.64467358
 C  -4.28566195  -2.19225263   3.60869712
 O  -4.40030751  -3.23912882   3.01603632
 O  -5.28697939  -1.66550991   4.34441037
 N  -0.11775177  -0.69256645   0.31952149
 H  -0.91748851  -0.08752266   0.29752370
 C   0.40687987  -1.11698101  -0.97264540
 H  -0.09187950  -0.48198205  -1.71065635
 C   1.90428796  -0.84656637  -1.11995535
 C   0.08328221  -2.57931338  -1.32196857
 H   0.45662799  -2.76008877  -2.32963314
 H   0.63410525  -3.23703070  -0.65556590
 O   2.56876480  -1.46891923  -1.95852246
 C  -1.39006496  -2.84151444  -1.23457620
 C  -1.93045741  -3.61644749  -0.21065457
 H  -1.27518789  -4.03822382   0.54523372
 C  -2.26466941  -2.29004279  -2.17255323
 H  -1.85325528  -1.67649802  -2.96581652
 C  -3.30116063  -3.85031827  -0.12567832
 H  -3.72004328  -4.43310180   0.68422439
 C  -3.63867039  -2.52109824  -2.10931595
 H  -4.29449471  -2.08730838  -2.85629643
 O  -5.49194529  -3.55744221  -0.94814799
 H  -5.96531474  -3.12769720  -1.66503270
 C  -4.15634421  -3.29864685  -1.07741493
 N   2.42643214   0.12912806  -0.37110967
 H   1.86407814   0.53502377   0.35164186
 C   3.77153576   0.67237919  -0.57521475
 H   3.91717850   0.79523723  -1.65149960
 C   4.77723251  -0.34554400  -0.09331178
 C   3.89683745   2.01499244   0.13116271
 H   3.70527640   1.86165653   1.19281412
 H   4.92642202   2.36778413   0.04874085
 O   5.34494491  -0.41162690   0.94572092
 C   2.95730676   3.07173698  -0.43329007
 H   3.02867345   3.97040717   0.18883894
 H   1.92086709   2.72744463  -0.35413812
 C   3.25316711   3.44673748  -1.87425510
 H   4.29493595   3.76883193  -1.97004456
 H   3.12711126   2.58366103  -2.53438652
 C   2.35099389   4.55627740  -2.37237744
 H   1.31149432   4.21861823  -2.30962269
 H   2.45106436   5.42860517  -1.70963935
 N   2.64815864   4.85335348  -3.77268348
 H   3.57113920   5.26457442  -3.84769914
 H   2.00305892   5.54690454  -4.12975201
 O   4.96753477  -1.39487161  -1.07281952
 H   4.06839604  -1.55153913  -1.55777228
 H   5.29485454  -2.17777147  -0.58682830
 H  -6.02363671  -2.28646339   4.27149915
