21
conf-962
 N  -0.23118149  -2.08617223   3.51159741
 H   0.29810467  -1.28668304   3.19031700
 H  -0.56113503  -1.87324802   4.44395061
 C  -1.34884852  -2.40312592   2.62598121
 H  -2.24638484  -1.80458887   2.86368190
 C  -0.90755820  -2.04410917   1.20744343
 C  -1.69670210  -3.88205976   2.72217807
 H  -0.80497098  -4.45717645   2.46768871
 H  -2.45406288  -4.12771855   1.97827445
 O  -0.32257353  -2.83346510   0.48038477
 C  -2.19510392  -4.26250785   4.11158458
 H  -3.06185816  -3.65033673   4.37849272
 H  -1.42536405  -4.10441244   4.86838968
 C  -2.61951279  -5.70045052   4.19202025
 O  -2.24827314  -6.49869408   5.01402966
 O  -3.51389131  -6.01923251   3.22565094
 N  -1.18931923  -0.75790723   0.84551533
 H  -1.54503752  -0.17453291   1.58247918
 C  -0.41622667  -0.02909240  -0.15441179
 H  -0.98201930   0.88545555  -0.35324685
 C   0.93733000   0.39040774   0.43941630
 C  -0.26937255  -0.78040291  -1.48729027
 H   0.45808682  -1.58001389  -1.38731647
 H  -1.23562224  -1.24022400  -1.68848306
 O   1.40512947  -0.15362236   1.44785842
 C   0.11599078   0.12830606  -2.62259397
 C  -0.79549847   1.04908904  -3.13640047
 H  -1.79223604   1.08743060  -2.70899100
 C   1.39958763   0.09959069  -3.16260742
 H   2.13414223  -0.57736526  -2.73817529
 C  -0.44416899   1.91488765  -4.16560985
 H  -1.15351982   2.62656795  -4.56546637
 C   1.77086411   0.96979059  -4.18266074
 H   2.78883583   0.95495318  -4.55855675
 O   1.14671446   2.75253620  -5.70027687
 H   2.05953041   2.60956671  -5.96346412
 C   0.84632121   1.87793036  -4.68983145
 N   1.57451819   1.39145744  -0.19380396
 H   1.17246552   1.72310762  -1.06008544
 C   2.99990347   1.68343920   0.03562149
 H   3.52910185   0.72632659   0.09398342
 C   3.13044258   2.37677337   1.36516821
 C   3.54840950   2.50659301  -1.12500781
 H   3.16582924   2.04701815  -2.03922004
 H   3.12419624   3.51112469  -1.07748228
 O   3.18509957   3.53954541   1.60745186
 C   5.06573940   2.55441992  -1.19883414
 H   5.45357397   1.53461289  -1.12097646
 H   5.46527218   3.11289183  -0.34918548
 C   5.58247960   3.17667933  -2.49533365
 H   6.65540127   2.98220796  -2.59245206
 H   5.10045914   2.68152350  -3.34944430
 C   5.35271039   4.67491257  -2.59786270
 H   5.61902888   5.01575811  -3.60704414
 H   4.28738438   4.89032812  -2.46564027
 N   6.08718578   5.38274134  -1.54258805
 H   5.88628374   6.37440880  -1.58232337
 H   7.08544063   5.29279018  -1.69857063
 O   3.13717684   1.43098696   2.45348627
 H   2.47802601   0.67728592   2.20896233
 H   2.88577552   1.93702150   3.25057214
 H  -3.74167294  -6.94667895   3.36501334
