21
conf-110
 N  -0.58122176  -3.54445688   3.59667291
 H  -0.50808834  -4.25724753   2.87543531
 H   0.37463046  -3.30338876   3.83373142
 C  -1.25712563  -2.39083208   3.02632768
 H  -1.22626039  -1.57415918   3.75469472
 C  -0.60678630  -1.94060032   1.71858159
 C  -2.72606437  -2.76240984   2.79511534
 H  -3.12653695  -3.08087698   3.75840980
 H  -2.74514131  -3.63527339   2.13451465
 O  -0.11819570  -2.75318314   0.94596596
 C  -3.60532762  -1.65614781   2.21857720
 H  -4.63310864  -2.02107875   2.11948287
 H  -3.28313809  -1.36255026   1.21614856
 C  -3.66261258  -0.43890681   3.09799266
 O  -3.55857729  -0.43497300   4.30092939
 O  -3.86587780   0.69204525   2.38835214
 N  -0.68141025  -0.61100762   1.46717565
 H  -0.99169487  -0.00516442   2.20889491
 C  -0.08199645   0.03951365   0.31379531
 H  -0.54862574   1.03143092   0.27245596
 C   1.42541843   0.23847228   0.51744363
 C  -0.38755920  -0.66543902  -1.01893799
 H   0.09315193  -1.63658316  -1.03402654
 H  -1.46496159  -0.82920070  -1.04549795
 O   2.13141755  -0.49721345   1.18483471
 C   0.05267570   0.14822010  -2.20486078
 C   1.18962974  -0.21321735  -2.92812977
 H   1.74697996  -1.09591971  -2.63646177
 C  -0.62874203   1.30395699  -2.57627129
 H  -1.49721015   1.60567925  -1.99740434
 C   1.62147750   0.54935248  -4.01429338
 H   2.50614178   0.27797774  -4.57635186
 C  -0.20204507   2.08231529  -3.64938341
 H  -0.73045022   2.99786179  -3.89822619
 O   1.39986948   2.41458431  -5.43990286
 H   0.80836551   3.15099569  -5.60387302
 C   0.91992874   1.68885835  -4.37608823
 N   1.92400224   1.35895372  -0.09012422
 H   1.32198483   1.80114657  -0.76703768
 C   3.35614750   1.47845220  -0.35692494
 H   3.65305954   0.73940758  -1.11062509
 C   4.20586182   1.15476539   0.84945399
 C   3.70409189   2.87948928  -0.84245984
 H   3.34531371   3.60829905  -0.11677713
 H   4.79234242   2.96556564  -0.86390699
 O   5.21471262   0.52688909   0.85811633
 C   3.14356207   3.18498350  -2.21586687
 H   2.05112593   3.12091575  -2.21538061
 H   3.49081118   2.42520040  -2.92719298
 C   3.54010766   4.55944810  -2.71762880
 H   3.19487874   5.31940617  -2.00837367
 H   4.63047781   4.64467413  -2.76410732
 C   2.95390234   4.85730370  -4.08783784
 H   3.35794558   4.14373689  -4.80815830
 H   1.87182450   4.71123641  -4.05057668
 N   3.20839609   6.20012624  -4.59238105
 H   4.20737637   6.36428745  -4.64449006
 H   2.84591444   6.88599421  -3.93952354
 O   3.77030943   1.81269100   2.05057739
 H   2.82547203   1.65665626   2.29144019
 H   4.28763209   1.44286185   2.78801704
 H  -3.91058994   1.40819251   3.03601330
