21
conf-879
 N  -0.79846272  -3.66340166   3.26938124
 H  -1.43769176  -4.23611115   3.80457056
 H  -0.54939018  -4.17788996   2.43143160
 C  -1.44874854  -2.43020204   2.86503871
 H  -1.42264687  -1.73183231   3.70819898
 C  -0.65444375  -1.86033274   1.69056315
 C  -2.91892879  -2.64505133   2.45523460
 H  -3.41125959  -3.19081580   3.26689997
 H  -2.92771616  -3.29160972   1.56662468
 O  -0.09331618  -2.61291961   0.89995055
 C  -3.71575611  -1.37750328   2.13653766
 H  -4.74831905  -1.63719477   1.89783968
 H  -3.28253866  -0.87599507   1.27084640
 C  -3.67064901  -0.42918244   3.28819769
 O  -2.76045072   0.34892369   3.48215199
 O  -4.71121322  -0.54859120   4.13564451
 N  -0.68663497  -0.51419420   1.56448025
 H  -1.19515708   0.01814729   2.26718014
 C  -0.06856233   0.21508865   0.47840392
 H  -0.51574543   1.21506158   0.52116060
 C   1.43802664   0.38198381   0.70607750
 C  -0.37668739  -0.36987634  -0.91145495
 H   0.01667008   0.32843047  -1.65732445
 H   0.15400471  -1.30892278  -1.02615442
 O   2.11267380  -0.34719246   1.43688575
 C  -1.85067083  -0.57867884  -1.11506942
 C  -2.40082728  -1.85848675  -1.14170440
 H  -1.75272302  -2.72340223  -1.03437721
 C  -2.71750771   0.50683405  -1.19540056
 H  -2.30701068   1.50881884  -1.15016240
 C  -3.77498762  -2.04953256  -1.24475417
 H  -4.20575149  -3.04297051  -1.20920041
 C  -4.09331153   0.33106737  -1.31790149
 H  -4.74395288   1.19842558  -1.36803630
 O  -5.96640149  -1.20137845  -1.42672833
 H  -6.43795006  -0.36490540  -1.47031607
 C  -4.62358879  -0.95359786  -1.33957226
 N   2.01492975   1.38854588   0.01133120
 H   1.44888245   1.94701413  -0.60302449
 C   3.46448095   1.46834754  -0.16451757
 H   3.83890805   0.44331220  -0.28973947
 C   4.16721980   1.96948906   1.07713874
 C   3.82809885   2.28833189  -1.39863243
 H   3.35760842   3.26903526  -1.33262276
 H   4.90463535   2.45729990  -1.39377381
 O   5.20830183   2.53695399   1.13882768
 C   3.43495616   1.59469741  -2.69090126
 H   2.35322370   1.42719333  -2.71050147
 H   3.90412311   0.60687913  -2.71464598
 C   3.83787386   2.38593434  -3.92423259
 H   3.38957204   3.38518980  -3.87031841
 H   4.92313247   2.52841769  -3.93370512
 C   3.41096435   1.73754073  -5.22822651
 H   2.32231637   1.58092401  -5.20634205
 H   3.62091444   2.42269703  -6.05414176
 N   4.16360351   0.50220028  -5.47467668
 H   3.99140112   0.17842570  -6.41792270
 H   3.82606377  -0.23448161  -4.86725140
 O   3.50730839   1.60318244   2.30516958
 H   3.01499194   0.70738429   2.15869114
 H   4.20138029   1.55263671   2.99345576
 H  -4.56165909   0.07996263   4.85430734
