21
conf-553
 N   0.96605425  -3.21237258   1.44486357
 H   0.73750172  -4.12733694   1.80250164
 H   1.08564731  -3.29591645   0.44103349
 C  -0.11395568  -2.27867655   1.68900762
 H  -0.02784804  -1.88724985   2.71103855
 C   0.04329574  -1.11984198   0.70583920
 C  -1.51975998  -2.86608569   1.52277103
 H  -1.61294666  -3.28041649   0.51688116
 H  -2.25369916  -2.05273903   1.59194167
 O   0.56207445  -1.29016761  -0.38975881
 C  -1.87264581  -3.93681437   2.54577438
 H  -1.86680828  -3.53967087   3.56277378
 H  -1.14959666  -4.75938120   2.52979986
 C  -3.21570075  -4.54997417   2.26772338
 O  -3.80595890  -4.49337867   1.21530794
 O  -3.70031060  -5.22414949   3.33217471
 N  -0.47736058   0.06477762   1.11197391
 H  -0.89257004   0.10492172   2.02643788
 C  -0.68094678   1.22896564   0.24447795
 H  -1.25413288   1.93497134   0.84415625
 C   0.62609273   1.96427155  -0.06580481
 C  -1.47918251   0.88335022  -1.01722776
 H  -1.62153320   1.80913169  -1.57811458
 H  -0.90919370   0.20121977  -1.63497892
 O   0.85731082   3.08164148   0.36487181
 C  -2.80365749   0.26771249  -0.67310173
 C  -3.04433070  -1.08811620  -0.88537935
 H  -2.25559680  -1.71196187  -1.29384274
 C  -3.82145536   1.03241236  -0.10135036
 H  -3.63251260   2.08372783   0.08400571
 C  -4.26995087  -1.66527560  -0.56301315
 H  -4.44796215  -2.72230418  -0.71136863
 C  -5.05716561   0.47480049   0.22294716
 H  -5.83313246   1.09540056   0.65764281
 O  -6.46076046  -1.49588634   0.29284394
 H  -7.06672569  -0.84874432   0.66259250
 C  -5.27804796  -0.88038234  -0.00628406
 N   1.50747063   1.32245454  -0.87984177
 H   1.37464682   0.32497584  -1.00678883
 C   2.84494568   1.87265283  -1.01991704
 H   3.26872085   2.07543217  -0.03325132
 C   2.82230510   3.19927934  -1.73138835
 C   3.71875443   0.87751029  -1.77532258
 H   3.57749069  -0.09931166  -1.29995870
 H   3.34381349   0.79529374  -2.79951728
 O   3.60259127   4.08914634  -1.65390060
 C   5.19841737   1.21787787  -1.77196002
 H   5.52937672   1.30178012  -0.73248555
 H   5.37421167   2.19001017  -2.23515611
 C   6.02125989   0.15377005  -2.48186347
 H   5.84388049  -0.81958790  -2.01348718
 H   5.67496867   0.07537625  -3.51949532
 C   7.51229153   0.43647763  -2.49181052
 H   8.01028823  -0.30215219  -3.12614935
 H   7.68548034   1.42256863  -2.94730469
 N   8.08236007   0.31918976  -1.14452718
 H   7.83373176   1.13040891  -0.59156754
 H   9.09287570   0.32610442  -1.19865168
 O   1.71676968   3.31792957  -2.64473729
 H   1.39670091   2.50899276  -3.10800021
 H   1.87467095   3.99859587  -3.32886476
 H  -4.54375331  -5.59866913   3.04576596
