21
conf-966
 N  -1.91076854  -3.63702303   2.12994352
 H  -0.97305385  -3.93244454   1.88280295
 H  -2.15046065  -4.13546917   2.98030797
 C  -1.94738275  -2.19927705   2.38591931
 H  -1.24015104  -1.89839113   3.17278028
 C  -1.56995459  -1.47291397   1.09564603
 C  -3.34972443  -1.82135957   2.83269997
 H  -3.55556758  -2.37951887   3.75061718
 H  -4.05363112  -2.16642403   2.07157730
 O  -2.39130571  -1.18380139   0.22992024
 C  -3.55906620  -0.32971649   3.07696844
 H  -4.59260344  -0.14863989   3.39115344
 H  -3.40975173   0.24767535   2.16150027
 C  -2.68099164   0.21910867   4.16371276
 O  -2.14363838  -0.42194729   5.03369362
 O  -2.58481100   1.56409201   4.09765255
 N  -0.25201838  -1.20618431   0.93607435
 H   0.42378874  -1.33134629   1.67404056
 C   0.19238956  -0.41947511  -0.19375868
 H  -0.56449580   0.34722538  -0.38738234
 C   1.50277982   0.24260528   0.21764297
 C   0.31921476  -1.27221814  -1.46999642
 H   1.14046327  -1.98089740  -1.35003462
 H  -0.60688090  -1.84368060  -1.54328221
 O   2.13070622  -0.14354222   1.20841483
 C   0.49986057  -0.43107573  -2.70546453
 C  -0.52760549   0.41024423  -3.12298293
 H  -1.45584627   0.41082915  -2.56066935
 C   1.69213238  -0.43909323  -3.42789049
 H   2.51069261  -1.06879192  -3.09452599
 C  -0.36968741   1.24922096  -4.22278724
 H  -1.16198576   1.91008632  -4.54508832
 C   1.85803938   0.38166860  -4.53725313
 H   2.80435403   0.39432567  -5.06987004
 O   0.97569260   2.09020859  -6.00297554
 H   1.75243568   1.79703165  -6.48615043
 C   0.82778695   1.22944489  -4.93065958
 N   1.93946701   1.24370330  -0.55874247
 H   1.43037608   1.41768803  -1.41540207
 C   3.33526135   1.68621792  -0.53435312
 H   3.96876827   0.80437432  -0.37638209
 C   3.62243732   2.56999531   0.65017854
 C   3.71607077   2.33632401  -1.86478031
 H   4.76361895   2.63697685  -1.81791876
 H   3.65290470   1.54534667  -2.62350920
 O   4.44875639   3.41842845   0.73779771
 C   2.84598361   3.51255214  -2.27453579
 H   3.00788882   4.34741989  -1.58874668
 H   1.79043045   3.24508445  -2.18768892
 C   3.11256834   3.94986406  -3.70611762
 H   4.13315289   4.32582324  -3.80903447
 H   3.03813316   3.08181719  -4.37557787
 C   2.13892247   5.00883559  -4.18290667
 H   1.11033661   4.66021301  -4.00116788
 H   2.28616366   5.92288835  -3.59867972
 N   2.37584142   5.30563743  -5.59390139
 H   1.83002582   6.10585937  -5.88547249
 H   2.05860796   4.52578879  -6.15540433
 O   2.82511851   2.24922705   1.79937348
 H   2.59612142   1.24187282   1.77411194
 H   3.33751154   2.51392145   2.59102599
 H  -2.02605653   1.82621473   4.84144854
