21
conf-883
 N  -4.51185695  -0.24548824   3.92829954
 H  -4.83473587  -0.08462896   4.87390297
 H  -5.27778145   0.01244245   3.31794261
 C  -3.33846726   0.58532553   3.66689642
 H  -2.59061277   0.37644398   4.43398358
 H  -3.54137524   1.66457235   3.66815614
 C  -2.73430629   0.18056537   2.32923439
 O  -2.07477219  -0.84704321   2.19576116
 N  -3.04957327   0.99440181   1.28325694
 H  -3.28223730   1.94731509   1.50435072
 C  -2.39652173   0.78224095  -0.00661501
 H  -2.51816409  -0.27739165  -0.23548431
 C  -0.91632977   1.11319114   0.13327762
 C  -3.05839004   1.66363014  -1.05997951
 H  -4.12936893   1.44826912  -1.04954589
 H  -2.93100712   2.70240682  -0.74523255
 O  -0.54455290   2.20883310   0.54313934
 C  -2.53810022   1.50357372  -2.49060979
 H  -1.45893903   1.69016763  -2.47997422
 C  -2.79230556   0.10329563  -3.03814812
 H  -3.86816337  -0.09035650  -3.08373414
 H  -2.38969208   0.00918072  -4.04945026
 H  -2.33414078  -0.67694861  -2.42478355
 C  -3.18815874   2.55142072  -3.39123937
 H  -4.27182584   2.41428076  -3.41061743
 H  -2.97705216   3.56194641  -3.03574196
 H  -2.81742623   2.47039456  -4.41538690
 N  -0.06116200   0.12307675  -0.20508020
 H  -0.40316073  -0.76460355  -0.53438285
 C   1.37979801   0.25994337  -0.05970845
 H   1.59483731   1.32993397  -0.05067492
 C   1.98618740  -0.42461073  -1.27075220
 C   1.91727519  -0.37176889   1.24005468
 H   1.68561942  -1.43751976   1.18603654
 O   1.75941572  -1.60558987  -1.50323136
 C   3.43649706  -0.21254825   1.34390746
 H   3.69852957   0.85013307   1.36222268
 H   3.80015988  -0.66870406   2.26712328
 H   3.95334771  -0.68702934   0.50721964
 C   1.23009305   0.23127599   2.46344334
 H   1.27085148   1.32072619   2.41774056
 H   1.72909455  -0.10128582   3.37531601
 H   0.18807234  -0.07238674   2.53118549
 N   2.75068700   0.35018962  -2.08135315
 H   3.04251969   1.25681189  -1.75992796
 C   3.50076520  -0.25569148  -3.16415791
 H   2.86991829  -1.03422658  -3.59548510
 C   4.75932973  -0.93689677  -2.67309558
 C   3.83021033   0.79750170  -4.22420498
 H   2.88622865   1.25119101  -4.53713177
 H   4.41830146   1.59076665  -3.75729317
 O   5.23431769  -1.94096642  -3.14094946
 C   4.57136350   0.25128558  -5.44416312
 H   5.57929539  -0.06405788  -5.15758761
 H   4.70389104   1.06617301  -6.16454981
 C   3.86745050  -0.91972496  -6.13076118
 H   4.42375691  -1.18278565  -7.03558589
 H   3.89614128  -1.80082705  -5.48499989
 C   2.41911476  -0.64275704  -6.50995780
 H   2.01518783  -1.49477501  -7.06054715
 H   1.81788581  -0.53640770  -5.60147700
 N   2.28341400   0.58852333  -7.32548841
 H   1.35724861   0.67150316  -7.74451669
 H   2.43188997   1.41468712  -6.74465902
 H   2.98221632   0.61129121  -8.06611737
 O   5.35277158  -0.26031126  -1.66309520
 H   6.15603959  -0.74873451  -1.45215571
