21
conf-123
 N  -3.87661810   1.10817027   3.99439823
 H  -4.41489064   1.59542996   4.69720914
 H  -3.27472730   0.46233600   4.48985980
 C  -4.76894642   0.38994020   3.08642449
 H  -5.63576189   1.01589284   2.87442073
 H  -5.14026044  -0.56464332   3.46396204
 C  -4.10314225   0.08923584   1.74585056
 O  -4.57299351  -0.73036724   0.96656391
 N  -3.00748218   0.83717401   1.49825992
 H  -2.64239165   1.37881298   2.26594160
 C  -2.14931163   0.60242528   0.36508384
 H  -2.46241978  -0.33904996  -0.09241873
 C  -0.70770711   0.47717450   0.87502312
 C  -2.23730030   1.71793521  -0.67616232
 H  -1.93819542   2.65427720  -0.19849856
 H  -1.50661106   1.51617920  -1.46445092
 O  -0.33683733   1.00108230   1.91339249
 C  -3.61273182   1.90282855  -1.32462038
 H  -4.34456658   2.07011714  -0.53238680
 C  -3.59134628   3.14055059  -2.21630121
 H  -2.85728107   3.01916751  -3.01709094
 H  -4.56834465   3.31309623  -2.67359247
 H  -3.32624859   4.03098615  -1.64198108
 C  -4.03816355   0.67334398  -2.12309184
 H  -3.31989361   0.47994112  -2.92567665
 H  -4.10763803  -0.21925295  -1.50090246
 H  -5.01669767   0.83930093  -2.58093960
 N   0.12114349  -0.23369461   0.06776203
 H  -0.19406013  -0.54612158  -0.83789526
 C   1.56399948  -0.26493719   0.27176688
 H   1.82797916   0.55170848   0.94797795
 C   2.19459851  -0.04996079  -1.09754048
 C   2.02850480  -1.58901226   0.91165796
 H   1.65828942  -2.38970789   0.26755394
 O   1.79126553  -0.64892946  -2.08103814
 C   3.55140371  -1.69608562   0.99475435
 H   3.95596324  -0.88531471   1.61304742
 H   3.82768977  -2.64248907   1.46525386
 H   4.02938172  -1.65597030   0.01422425
 C   1.42498386  -1.73929684   2.30486516
 H   1.79961779  -0.94206072   2.95354533
 H   1.70844519  -2.69979548   2.73889698
 H   0.33779764  -1.67583178   2.29004757
 N   3.21473768   0.85204060  -1.14424237
 H   3.63490366   1.12372660  -0.26999511
 C   4.06400235   0.94774271  -2.31865530
 H   3.46541340   0.65112833  -3.18032209
 C   5.24053739   0.00793955  -2.18329357
 C   4.56516563   2.38526642  -2.48881475
 H   3.68736589   3.03322644  -2.46846556
 H   5.18016344   2.64742230  -1.62382448
 O   5.82572437  -0.22496556  -1.14990866
 C   5.33090353   2.62744458  -3.77944279
 H   4.70937681   2.29999442  -4.61780991
 H   6.23692413   2.01660921  -3.80898531
 C   5.70405286   4.09181019  -3.94254100
 H   4.79846907   4.70630794  -3.93246247
 H   6.30782923   4.40302526  -3.08357733
 C   6.49333942   4.38556042  -5.20419756
 H   6.88359965   5.40445274  -5.17411711
 H   7.35561524   3.71461328  -5.24733042
 N   5.68564157   4.20769471  -6.43872002
 H   6.22864561   4.38986685  -7.28303565
 H   5.32816405   3.25590444  -6.50867140
 H   4.87923340   4.83192398  -6.44465564
 O   5.61763636  -0.51124071  -3.36830315
 H   6.40194614  -1.04500594  -3.19137194
