21
conf-370
 N  -5.81537904   1.47165329   3.47113141
 H  -6.48136137   1.55291766   2.71275658
 H  -5.81808465   0.48984836   3.71676461
 C  -4.49488220   1.84532039   3.01184305
 H  -3.80307525   1.83694971   3.85939312
 H  -4.51689234   2.87191968   2.64091525
 C  -3.91004545   0.94205280   1.92031081
 O  -4.42383805  -0.12493136   1.59875606
 N  -2.78257837   1.42464472   1.33615902
 H  -2.25768298   2.15849409   1.79000968
 C  -1.98423025   0.61428633   0.44396770
 H  -2.32626275  -0.42046480   0.52318288
 C  -0.53299144   0.72840804   0.91962367
 C  -2.09188311   1.06283754  -1.01626143
 H  -1.78193627   2.10894599  -1.07701507
 H  -1.37590655   0.48799146  -1.61155665
 O  -0.15986014   1.64510819   1.63295979
 C  -3.47846860   0.92330403  -1.64916105
 H  -4.19469080   1.46068924  -1.02693084
 C  -3.47129739   1.57311415  -3.03000403
 H  -2.75043334   1.07280832  -3.68195358
 H  -4.45567599   1.51007982  -3.49952047
 H  -3.19725249   2.62815529  -2.96281992
 C  -3.92051332  -0.53462489  -1.74564139
 H  -3.22696270  -1.09880651  -2.37597908
 H  -3.96513652  -1.01217133  -0.76626927
 H  -4.91412857  -0.59983835  -2.19618402
 N   0.29310486  -0.25586818   0.47146991
 H   0.00265331  -0.82508196  -0.31006410
 C   1.73378089  -0.11295455   0.53776915
 H   1.96200762   0.94349954   0.71633181
 C   2.26538695  -0.53789310  -0.83645933
 C   2.37282643  -0.91943832   1.68558844
 H   3.44685049  -0.71001240   1.62641756
 O   1.55049309  -1.07103106  -1.66834288
 C   1.86300363  -0.42097351   3.03522384
 H   0.81267239  -0.68213500   3.16130237
 H   2.42531436  -0.88618185   3.84677511
 H   1.95298282   0.66347553   3.11938711
 C   2.15415922  -2.42259715   1.54083164
 H   1.08947606  -2.64928299   1.63085329
 H   2.68350959  -2.96046191   2.33049216
 H   2.50205836  -2.79210716   0.57287146
 N   3.58286583  -0.31317232  -1.04343168
 H   4.12351556   0.20671491  -0.37125052
 C   4.17944291  -0.63522681  -2.32993058
 H   3.75224829  -1.58219988  -2.66912191
 C   5.67074158  -0.82688758  -2.18579468
 C   3.87011492   0.43038634  -3.39246823
 H   2.79049044   0.57587652  -3.38707676
 H   4.32847336   1.37515042  -3.09751431
 O   6.32946459  -1.62307558  -2.80490672
 C   4.33550637   0.01849194  -4.78253339
 H   3.89658939  -0.95747169  -5.02039421
 H   5.41943402  -0.12269849  -4.79712850
 C   3.94960126   1.02034169  -5.86287104
 H   4.18761978   0.60194935  -6.84504596
 H   2.86780785   1.19342578  -5.84373417
 C   4.65833886   2.35200704  -5.72644180
 H   4.36380294   2.83431355  -4.79201677
 H   5.73731208   2.18383204  -5.67836516
 N   4.34544215   3.26928976  -6.85169727
 H   4.81725498   4.16912212  -6.76052076
 H   4.62820121   2.86199974  -7.74171458
 H   3.34422770   3.45122607  -6.90399392
 O   6.21587034   0.04178670  -1.30365270
 H   7.16543635  -0.13149680  -1.29217659
