21
conf-983
 N  -3.55144701   1.86060924   3.20658505
 H  -4.53723187   1.71537692   3.02705577
 H  -3.49119848   2.38527385   4.06845082
 C  -2.86067962   0.58077741   3.35093423
 H  -3.42959334  -0.19920883   3.86035793
 H  -1.94327053   0.73721625   3.91895926
 C  -2.44418866  -0.00071503   2.00807582
 O  -1.95264659  -1.12747442   1.93004278
 N  -2.63882804   0.79656351   0.94773299
 H  -2.89621471   1.74846481   1.15019040
 C  -2.17322298   0.41418391  -0.37923669
 H  -2.37149304  -0.65554618  -0.45555996
 C  -0.66745222   0.66664195  -0.46388121
 C  -2.93782766   1.16918505  -1.45232901
 H  -4.00273742   1.06848699  -1.23157921
 H  -2.68178439   2.22872804  -1.37697950
 O  -0.19054725   1.68544750  -0.94365264
 C  -2.68608570   0.68464879  -2.88421276
 H  -1.60861176   0.76089293  -3.07635009
 C  -3.11159067  -0.76743697  -3.07925140
 H  -4.17320779  -0.88900856  -2.84547458
 H  -2.96070059  -1.07546590  -4.11573538
 H  -2.53740246  -1.44554436  -2.44487465
 C  -3.41356915   1.60004563  -3.86593064
 H  -4.49179742   1.56316411  -3.69351408
 H  -3.08279287   2.63445725  -3.75420990
 H  -3.22390253   1.29510370  -4.89725223
 N   0.10793403  -0.32286032   0.04827670
 H  -0.32660589  -1.01593257   0.64522844
 C   1.54708869  -0.12440406   0.12283709
 H   1.74933985   0.88363192   0.50756731
 C   2.18752634  -0.14619363  -1.27731987
 C   2.17936947  -1.14114672   1.09463158
 H   1.86557588  -2.13314608   0.75894934
 O   3.19243883   0.50391062  -1.52950474
 C   3.70561690  -1.07450598   1.09549644
 H   4.03287682  -0.07626881   1.39962005
 H   4.11311903  -1.79953442   1.80322837
 H   4.12894998  -1.28285245   0.11156815
 C   1.66647103  -0.90086968   2.51458573
 H   1.99871176   0.08191502   2.85608662
 H   2.06573849  -1.65349027   3.19701468
 H   0.57740424  -0.93181784   2.57236777
 N   1.61004458  -0.95468420  -2.19369783
 H   0.69834680  -1.35257264  -2.03458297
 C   2.14964758  -1.01798610  -3.53401548
 H   2.49425829  -0.01665994  -3.81759781
 C   1.03014862  -1.42919498  -4.45260715
 C   3.34475599  -1.98243957  -3.60327752
 H   3.97513897  -1.73913631  -2.74329096
 H   2.99097617  -3.00575810  -3.45593618
 O  -0.04062717  -1.84148081  -4.07847436
 C   4.17737732  -1.87004872  -4.86998530
 H   4.46110598  -0.82139893  -5.01002632
 H   3.60301185  -2.15851048  -5.74931265
 C   5.43468107  -2.71695972  -4.79443586
 H   6.01820703  -2.43442671  -3.91385475
 H   5.15977768  -3.76817528  -4.67264419
 C   6.30429281  -2.57614706  -6.02437990
 H   5.71940873  -2.84369893  -6.90763998
 H   6.59636369  -1.52934449  -6.13748710
 N   7.51994157  -3.42517149  -5.95934681
 H   8.10326683  -3.33216062  -6.79151754
 H   8.09365251  -3.17985202  -5.15315069
 H   7.27177547  -4.40958315  -5.86674438
 O   1.35002033  -1.29097240  -5.75062264
 H   0.59100360  -1.59977612  -6.26017136
