123
125
N         -2.51061        4.57511        0.68107
H         -2.91317        4.15058       -0.18006
H         -1.46181        4.62987        0.49999
H         -2.94699        5.48700        0.85269
C         -2.76296        3.68669        1.85437
H         -2.46295        2.68114        1.54706
C         -4.28129        3.72664        2.11576
C         -1.89861        4.12167        3.06579
H         -0.85851        3.89528        2.81065
H         -2.17348        3.47669        3.90835
O         -4.93681        4.70692        1.76554
C         -2.02571        5.58375        3.44501
C         -1.11591        6.52151        2.93348
H         -0.30882        6.18430        2.28617
C         -3.04556        6.02931        4.29709
H         -3.75257        5.31464        4.71125
C         -1.22898        7.87413        3.26137
H         -0.51380        8.58789        2.86159
C         -3.15715        7.37939        4.62765
H         -3.95046        7.70767        5.29324
C         -2.25035        8.30589        4.10849
H         -2.33646        9.35711        4.36847
N         -4.74739        2.61744        2.72141
H         -4.09559        1.88832        3.00276
C         -6.12729        2.29312        3.09410
H         -6.38106        2.81624        4.02882
C         -6.04940        0.78477        3.43945
C         -7.16092        2.66975        2.02778
H         -8.17534        2.49666        2.40471
H         -7.01549        2.09216        1.10950
H         -7.07164        3.72918        1.78582
O         -5.00534        0.33227        3.92186
N         -7.12387        0.01303        3.18549
H         -7.92291        0.40557        2.70708
C         -7.13060       -1.43561        3.44787
H         -6.50807       -1.58130        4.33652
C         -6.48015       -2.22189        2.27350
C         -8.55427       -1.91488        3.70799
H         -8.55316       -2.98306        3.93546
H         -9.18367       -1.77844        2.82268
H         -8.98965       -1.37281        4.55312
O         -7.12231       -3.02583        1.60427
N         -5.16555       -1.95390        2.06002
H         -4.65080       -1.33406        2.68411
C         -4.38830       -2.69444        1.08302
H         -4.66011       -3.75544        1.16147
C         -2.90756       -2.51933        1.46581
C         -4.68758       -2.27129       -0.39178
H         -4.22304       -3.01022       -1.05726
H         -5.76919       -2.37857       -0.51691
O         -2.54472       -1.65872        2.26173
C         -4.22285       -0.88404       -0.77003
C         -5.02661        0.24653       -0.57068
H         -6.03484        0.11962       -0.18469
C         -2.94806       -0.68836       -1.31845
H         -2.31578       -1.54767       -1.52453
C         -4.56379        1.53083       -0.85950
H         -5.19701        2.40081       -0.70944
C         -2.46806        0.58667       -1.60485
H         -1.47392        0.72974       -2.01474
O         -2.81005        2.98288       -1.57991
H         -1.81534        2.96539       -1.67140
C         -3.26679        1.70575       -1.35183
N         -2.04289       -3.40444        0.88596
H         -2.36743       -3.98271        0.12111
C         -0.60092       -3.29778        1.04965
H         -0.44946       -2.60948        1.88572
C          0.00776       -2.71620       -0.24628
C          0.08437       -4.65081        1.34969
H         -0.14377       -5.35406        0.53624
H          1.16675       -4.46887        1.29490
O         -0.42206       -3.07186       -1.34389
C         -0.23344       -5.29730        2.71849
H         -0.26446       -4.49443        3.47025
C         -1.58328       -6.03171        2.74547
H         -1.59877       -6.84176        2.00429
H         -1.75446       -6.48309        3.72927
H         -2.42155       -5.36353        2.53330
C          0.89862       -6.26238        3.10810
H          0.99853       -7.06909        2.37037
H          1.86442       -5.74720        3.17399
H          0.69948       -6.72716        4.08002
N          1.02963       -1.84266       -0.04532
H          1.29971       -1.65279        0.91385
C          1.87925       -1.11601       -1.00696
H          2.84368       -1.63956       -1.08420
C          2.22318        0.19746       -0.24743
C          1.30634       -0.95091       -2.42712
H          0.23912       -0.72698       -2.38056
H          1.80281       -0.09168       -2.89054
O          2.67679        0.09922        0.88784
C          1.51827       -2.15578       -3.34976
H          0.96497       -2.00576       -4.28724
H          1.09960       -3.06389       -2.91038
C          2.95648       -2.38941       -3.73015
O          3.88850       -1.61011       -3.56632
O          3.13861       -3.58382       -4.30524
N          2.03038        1.41178       -0.86779
H          1.33292        1.43423       -1.61629
C          1.84114        2.61386       -0.02192
H          1.78299        2.27625        1.01665
C          0.48066        3.26606       -0.38722
C          2.97762        3.64357       -0.13146
H          2.68378        4.48923        0.49564
H          3.01666        4.02830       -1.16037
O          0.11939        4.19837        0.37904
C          4.36426        3.10659        0.30316
H          4.26632        2.12197        0.77464
H          4.80462        3.76620        1.05833
C          5.37689        3.02255       -0.83978
H          6.35162        2.68705       -0.46557
H          5.50167        4.02157       -1.28270
N          4.91796        2.08346       -1.87673
H          3.97955        1.69127       -1.75963
N          6.71152        2.50213       -3.28452
H          7.30757        2.23045       -4.05180
H          6.96141        3.33614       -2.77573
N          5.16292        0.86804       -3.83909
H          5.64377        0.72802       -4.71608
H          4.55028        0.10130       -3.54748
C          5.59108        1.81416       -2.99339
O         -0.11782        2.80989       -1.39983
H          4.08270       -3.66185       -4.54245
