80
82
N         -0.86464        5.78435        1.96284
H         -1.43717        6.02294        1.15132
H         -1.04526        6.48309        2.68290
C         -1.30825        4.45975        2.43228
H         -0.62093        4.14122        3.22526
C         -1.18041        3.51049        1.22150
C         -2.75633        4.45367        3.00069
H         -3.44241        4.74242        2.19530
H         -2.80774        5.24219        3.76385
O         -1.36593        3.94152        0.08577
C         -3.17866        3.12858        3.60112
C         -4.11829        2.31170        2.95881
H         -4.57389        2.64841        2.03036
C         -2.61513        2.68134        4.80637
H         -1.90416        3.31256        5.33682
C         -4.48505        1.07916        3.50274
H         -5.22404        0.46473        2.99592
C         -2.97522        1.44688        5.34976
H         -2.53578        1.12134        6.28864
C         -3.91131        0.64130        4.69748
H         -4.19908       -0.31543        5.12371
N         -0.85485        2.22742        1.53268
H         -0.80249        2.00466        2.51806
C         -0.67164        1.10240        0.61127
H         -0.81383        0.20517        1.22217
C          0.77265        1.08420        0.07364
C         -1.71515        1.06887       -0.53731
H         -2.69470        1.21927       -0.06451
H         -1.54695        1.93274       -1.18323
O          1.41033        2.11818       -0.19629
C         -1.75779       -0.21935       -1.38640
H         -0.77245       -0.36741       -1.84813
C         -2.11268       -1.47190       -0.56840
H         -3.06953       -1.34098       -0.04633
H         -2.21333       -2.34289       -1.22524
H         -1.35672       -1.73128        0.18259
C         -2.77223       -0.02503       -2.52571
H         -3.78576        0.12547       -2.13229
H         -2.51949        0.84524       -3.14219
H         -2.79674       -0.90330       -3.17984
N          1.29424       -0.13634       -0.11646
H          0.85031       -0.97342        0.26547
C          2.61371       -0.35612       -0.69112
H          3.38231        0.00579        0.00577
C          2.73839        0.37396       -2.05045
C          2.81690       -1.86440       -0.96799
H          2.13543       -2.14606       -1.77973
H          3.83885       -2.01376       -1.33072
O          1.88990        0.22511       -2.92248
C          2.50360       -2.76990        0.22294
N          3.43255       -3.70716        0.52373
H          3.21654       -4.38050        1.24769
H          4.25904       -3.85598       -0.03555
O          1.45243       -2.66215        0.85851
N          3.87148        1.10453       -2.21041
H          4.50951        1.20013       -1.43260
C          4.24617        1.74602       -3.46564
H          3.75425        1.18324       -4.26761
C          5.74987        1.64376       -3.72927
C          3.79980        3.22788       -3.54416
H          4.41673        3.73349       -4.29286
H          4.02121        3.69213       -2.57455
O          6.28919        2.13525       -4.69072
C          2.30611        3.39672       -3.89393
H          2.18776        3.46373       -4.98113
H          1.73348        2.51563       -3.58413
C          1.67140        4.64151       -3.26462
H          2.29246        5.52799       -3.44414
H          0.68363        4.82144       -3.71032
N          1.54302        4.44242       -1.81919
H          1.43789        3.48536       -1.47339
N          1.23907        6.67686       -1.23782
H          1.26397        7.39277       -0.52715
H          0.93393        6.93756       -2.16267
N          1.50952        5.07081        0.41350
H          0.83233        5.52644        1.05554
H          1.59849        4.06898        0.57952
C          1.40710        5.38580       -0.89102
O          6.41895        0.95789       -2.77103
H          7.35913        0.96358       -3.03674
