21
conf-962
 N  -2.80036636  -2.31496652  -3.09981682
 H  -3.54288147  -1.62222738  -3.08947777
 H  -3.01930948  -2.99281160  -3.81793591
 C  -1.54127182  -1.64299744  -3.39460492
 H  -0.73323466  -2.37571264  -3.27351244
 C  -1.40081497  -0.55377062  -2.34555941
 C  -1.44099526  -1.01101483  -4.78132699
 H  -0.49023204  -0.48154814  -4.85852354
 H  -2.22188461  -0.26071440  -4.89066378
 O  -2.26783768   0.30837572  -2.20300998
 C  -1.52771449  -2.03069381  -5.90944611
 H  -0.80035310  -2.83486356  -5.76869039
 H  -2.51575085  -2.49978018  -5.95116071
 C  -1.25482610  -1.41294476  -7.25535216
 O  -0.90701739  -0.27759031  -7.46008896
 O  -1.43580855  -2.30649193  -8.25722775
 N  -0.30298202  -0.64393055  -1.56024474
 H   0.46988878  -1.24055826  -1.81491225
 C  -0.03580566   0.28968732  -0.49288752
 H  -0.65621621   1.16877542  -0.66643837
 C   1.44743729   0.64771075  -0.55820121
 C  -0.36994711  -0.26631405   0.89644782
 H  -0.05365311   0.48723122   1.62628513
 H   0.23739649  -1.15603788   1.08888833
 O   2.28053501  -0.10807307  -1.02063867
 C  -1.85392167  -0.59222583   1.13085776
 H  -2.45024656   0.13028670   0.56999857
 C  -2.22475970  -2.00638922   0.68167091
 H  -1.64410733  -2.73663842   1.25383540
 H  -3.28417485  -2.19399041   0.87793773
 H  -2.04948860  -2.19640891  -0.37565374
 C  -2.18570030  -0.43088020   2.61531085
 H  -1.57976320  -1.11203048   3.21875366
 H  -1.99463796   0.58882590   2.95536469
 H  -3.23743956  -0.65418822   2.80637890
 N   1.75556057   1.86528850  -0.03166030
 H   1.03523483   2.34934758   0.46989373
 C   3.13694129   2.22059287   0.24073107
 H   3.73579343   1.53522937  -0.36325260
 C   3.51448708   1.94591947   1.68647545
 C   3.43667953   3.66710508  -0.15433242
 H   3.07843537   4.32803388   0.63997333
 H   2.86362642   3.90032581  -1.05219413
 O   4.32191869   2.58251102   2.32035444
 C   4.91614965   3.91444308  -0.42859754
 H   5.51738289   3.55212805   0.40197686
 H   5.22080037   3.34410123  -1.30740359
 C   5.20932146   5.38950796  -0.64321840
 H   4.81850699   5.97585742   0.19542842
 H   4.69741052   5.74233708  -1.54034571
 N   6.63475337   5.71093321  -0.83109639
 H   7.00670732   5.53118390  -1.75308248
 N   7.15347060   5.38130145   1.42489510
 H   7.76837138   5.59025285   2.19482615
 H   6.17073064   5.33353255   1.63524883
 N   8.84244809   5.82101135  -0.14699040
 H   9.48298489   5.97723511   0.61757007
 H   9.04781671   6.35126145  -0.98380860
 C   7.53220728   5.65430089   0.16358932
 O   2.86535617   0.88500285   2.20545408
 H   3.20659267   0.77610191   3.10137327
 H  -1.23157729  -1.83330462  -9.07446067
