21
conf-746
 N  -2.27380488   0.33481306  -4.26844248
 H  -1.93070623   1.28646003  -4.18916813
 H  -2.30221592   0.10216063  -5.25197464
 C  -1.34367724  -0.53661583  -3.57386056
 H  -1.88514343  -1.43166854  -3.24759520
 C  -0.83927236   0.19584658  -2.34020943
 C  -0.16053496  -1.01161931  -4.43337469
 H  -0.57758955  -1.55807299  -5.28427271
 H   0.44399715  -1.71748293  -3.86425087
 O  -0.78298156   1.42023152  -2.29920394
 C   0.72598651   0.12830851  -4.92571630
 H   0.12238325   0.91207204  -5.38480669
 H   1.26774713   0.57875466  -4.08381294
 C   1.69885563  -0.35657988  -5.95825074
 O   1.69817204  -0.05939872  -7.12565452
 O   2.63342217  -1.23268835  -5.46545012
 N  -0.42581725  -0.58642223  -1.31733319
 H  -0.37132677  -1.58141747  -1.44304462
 C   0.10300769  -0.01648252  -0.08359892
 H  -0.48888435   0.88091152   0.10410725
 C   1.56189080   0.38418259  -0.30816896
 C  -0.06199017  -1.00797653   1.05608950
 H   0.49629760  -1.91385080   0.80826338
 H  -1.12098737  -1.27396142   1.10183678
 O   2.50780940  -0.33877020  -0.01183479
 C   0.37422467  -0.51364263   2.43910898
 H   1.44767936  -0.30838996   2.39292372
 C  -0.34929149   0.76319653   2.84945784
 H  -1.42947649   0.59098565   2.89781693
 H  -0.01959980   1.08477146   3.84067117
 H  -0.16283904   1.58567795   2.15498107
 C   0.14113711  -1.61936330   3.46578970
 H  -0.92327453  -1.85601764   3.53227498
 H   0.67786663  -2.53010837   3.19245556
 H   0.48213185  -1.31232621   4.45711404
 N   1.73519568   1.59914974  -0.88289042
 H   0.94731773   2.05803356  -1.32631261
 C   3.08147617   2.07692130  -1.14209039
 H   3.73590566   1.62862849  -0.39279152
 C   3.16809110   3.57904224  -0.98819965
 C   3.57647496   1.64995776  -2.53242775
 H   2.99847984   2.18198018  -3.29383421
 H   3.35351707   0.58803800  -2.62315103
 O   4.08242669   4.17242980  -0.47545844
 C   5.06688535   1.88913693  -2.73221757
 H   5.32036742   2.94015553  -2.57269977
 H   5.61954762   1.31177949  -1.99003290
 C   5.54518628   1.47919680  -4.11825205
 H   6.61873433   1.66424953  -4.23327122
 H   5.04675183   2.08209503  -4.88138683
 N   5.24554018   0.07883003  -4.45318765
 H   4.30658973  -0.09684004  -4.79815695
 N   6.90083775  -0.79306002  -3.06554925
 H   7.53472686  -1.57641928  -2.99452712
 H   7.36053248   0.10367267  -3.13789044
 N   5.35695852  -2.21683124  -4.08653525
 H   5.55650560  -2.88959301  -3.35930033
 H   4.41144896  -2.27765077  -4.45154180
 C   5.82425098  -0.96472928  -3.86911491
 O   2.10929544   4.20469651  -1.54401748
 H   2.24912974   5.15237993  -1.42560494
 H   3.11184946  -1.52038792  -6.25734971
