21
conf-472
 N  -2.56385142  -1.90874947  -3.98058904
 H  -3.11234533  -2.40027919  -3.28488313
 H  -3.04125524  -1.02272806  -4.12111568
 C  -1.23323210  -1.62864723  -3.46360819
 H  -0.78731328  -2.57076106  -3.12841747
 C  -1.25517917  -0.65769420  -2.27127064
 C  -0.36181174  -1.05244580  -4.57977078
 H   0.61211831  -0.75353785  -4.17984076
 H  -0.84266431  -0.15077037  -4.95886793
 O  -2.14781554   0.16751231  -2.11558829
 C  -0.16786841  -2.05049362  -5.71932896
 H   0.33598150  -2.95505615  -5.37876737
 H  -1.13959383  -2.35122859  -6.11898048
 C   0.62886537  -1.49773026  -6.86307084
 O   1.52197589  -2.06849437  -7.43427053
 O   0.20792323  -0.26329646  -7.22558804
 N  -0.19895310  -0.77808598  -1.42219509
 H   0.62826742  -1.27483270  -1.71918550
 C   0.06984435   0.20424357  -0.39525745
 H  -0.53383687   1.09082294  -0.60033393
 C   1.55980273   0.54491167  -0.50729594
 C  -0.24226485  -0.30652056   1.01277717
 H   0.09865252   0.43985810   1.73374067
 H   0.35056850  -1.20765184   1.18771790
 O   2.34451526  -0.17632628  -1.10010762
 C  -1.71303293  -0.61648793   1.29929031
 H  -2.06988401  -1.32306673   0.55000188
 C  -1.83205583  -1.28098863   2.66817415
 H  -1.46670443  -0.60985575   3.44987861
 H  -2.87086354  -1.53271920   2.89390805
 H  -1.24638766  -2.20202353   2.70681069
 C  -2.57960568   0.63856195   1.23610393
 H  -2.24528473   1.36475433   1.98289698
 H  -2.54044883   1.10964145   0.25348746
 H  -3.62273295   0.39153716   1.44912043
 N   1.94455358   1.66705747   0.14178474
 H   1.26810954   2.24889458   0.60741034
 C   3.34813111   2.04250895   0.18105602
 H   3.93900605   1.13199080   0.31452038
 C   3.61513545   2.94750614   1.36122990
 C   3.79890052   2.69896967  -1.13527800
 H   3.25805188   3.63682018  -1.27922279
 H   3.48527867   2.01895650  -1.92464227
 O   4.63359239   2.96568543   2.00399650
 C   5.30248199   2.92539600  -1.18245815
 H   5.61950644   3.63034666  -0.40973150
 H   5.80513592   1.98134416  -0.97091283
 C   5.79014858   3.44464768  -2.52963518
 H   6.87286587   3.60123504  -2.50866951
 H   5.34468229   4.41909643  -2.73995332
 N   5.44974290   2.59239685  -3.68472955
 H   4.52925004   2.74478758  -4.07080529
 N   6.92418952   0.90282284  -3.04643609
 H   7.44343059   0.08617632  -3.32628823
 H   7.44616218   1.58871933  -2.52573538
 N   5.35994295   0.53034690  -4.75537685
 H   5.87418963  -0.29524592  -5.02510699
 H   4.83402038   0.96445867  -5.50177174
 C   5.92792141   1.35055442  -3.83654401
 O   2.58515101   3.78990272   1.59989196
 H   2.84366478   4.34286215   2.34740772
 H   0.75338974  -0.00014169  -7.97680445
