21
conf-549
 N  -2.87322186  -1.13772837  -3.83449645
 H  -3.44072574  -1.73379279  -3.24262109
 H  -3.32167898  -0.22588193  -3.82129918
 C  -1.53458205  -1.00473795  -3.28385181
 H  -1.12550437  -2.00349955  -3.13063917
 C  -1.51805534  -0.24164489  -1.95704405
 C  -0.66869377  -0.27585909  -4.31368296
 H  -1.06960653   0.73865793  -4.41646809
 H  -0.82890023  -0.77368333  -5.27150501
 O  -2.28613794   0.68529862  -1.72967421
 C   0.82880461  -0.21866114  -4.01822513
 H   1.31287813   0.51014477  -4.67082662
 H   1.02617229   0.10464289  -2.99770026
 C   1.54131371  -1.52895258  -4.20440729
 O   1.03054483  -2.62212490  -4.23945829
 O   2.87535722  -1.35367266  -4.31646969
 N  -0.57782486  -0.66404352  -1.07321024
 H   0.17147200  -1.24953156  -1.40781616
 C  -0.26718460   0.08668549   0.12158395
 H  -0.81509234   1.02882862   0.07681486
 C   1.23364703   0.39255126   0.08914042
 C  -0.65482322  -0.66628338   1.39094665
 H  -0.32113710  -0.09255982   2.25800185
 H  -0.10556141  -1.61090049   1.41119688
 O   1.98134403  -0.10123038  -0.74066120
 C  -2.14997578  -0.95242700   1.54999667
 H  -2.49325622  -1.50858697   0.67573256
 C  -2.36856718  -1.82727723   2.78077462
 H  -2.02637512  -1.30938050   3.68039894
 H  -3.42620021  -2.06885530   2.90969250
 H  -1.81679825  -2.76613005   2.69640065
 C  -2.96679242   0.33263757   1.65393604
 H  -2.65323509   0.90742989   2.53085114
 H  -2.85703529   0.96382121   0.77151776
 H  -4.02834462   0.09884089   1.76918802
 N   1.67568021   1.24639617   1.04243506
 H   1.06978370   1.55260732   1.78730658
 C   3.09204116   1.50020701   1.19341145
 H   3.63795558   0.58696289   0.94842083
 C   3.35756887   1.84702072   2.64043082
 C   3.60991373   2.60668900   0.25978953
 H   3.39441128   2.29033511  -0.75923754
 H   4.69644072   2.63032592   0.37237693
 O   2.51490192   2.10252408   3.46301306
 C   3.01623065   3.97907877   0.53544573
 H   1.95323521   3.97160176   0.30040129
 H   3.10527479   4.22842686   1.59846854
 C   3.68565040   5.08297102  -0.27247277
 H   4.74262899   5.15047075  -0.00674532
 H   3.24812304   6.05521614  -0.02634516
 N   3.65124671   4.89146060  -1.73467265
 H   4.36584998   4.27923996  -2.10070844
 N   1.36737670   5.33811147  -1.87431204
 H   0.58783625   5.59013940  -2.46016982
 H   1.43263021   5.83199582  -0.99941953
 N   2.52193006   4.46843876  -3.72276632
 H   1.74705483   4.74190076  -4.30840718
 H   3.41601119   4.45257807  -4.19515677
 C   2.51453602   4.91940973  -2.44210009
 O   4.67662091   1.86676835   2.90932403
 H   4.75642932   2.10311015   3.84205246
 H   3.25103156  -2.23968627  -4.40051690
