21
conf-684
 N  -2.85949487  -0.78994820  -3.35960750
 H  -3.19026358  -1.44961862  -4.05628674
 H  -3.35751044  -1.00278149  -2.50326259
 C  -1.41642250  -0.95411506  -3.18051389
 H  -1.15286662  -1.98790553  -2.90590722
 C  -0.95415565  -0.07900597  -2.01997457
 C  -0.68268128  -0.61259210  -4.47202525
 H  -0.76336532  -1.46741325  -5.14691113
 H   0.38338712  -0.48643932  -4.24961765
 O  -0.81815846   1.14050048  -2.11479268
 C  -1.22075396   0.63138940  -5.17654443
 H  -2.27827480   0.49211372  -5.41211785
 H  -1.15548182   1.51116574  -4.53945833
 C  -0.51301045   0.89313558  -6.47301113
 O  -0.01838319   1.94471082  -6.80345079
 O  -0.50784052  -0.17617558  -7.29067523
 N  -0.74974767  -0.73416485  -0.85190648
 H  -0.64992100  -1.73453680  -0.87672941
 C  -0.19670968  -0.04673658   0.31179101
 H  -0.69812487   0.92072813   0.35123587
 C   1.30077525   0.14889671   0.10587722
 C  -0.49653807  -0.83169637   1.57686194
 H  -0.10201965  -1.84466565   1.46731041
 H  -1.58428119  -0.90811339   1.65156229
 O   2.13501760  -0.68048509   0.44660348
 C   0.05144449  -0.22166642   2.87472438
 H   1.13777306  -0.35797500   2.87111730
 C  -0.23945097   1.27155330   2.97587749
 H  -1.31045530   1.46309414   2.85117632
 H   0.05613992   1.65052535   3.95698419
 H   0.30336208   1.84684971   2.22227503
 C  -0.52709930  -0.98017047   4.06618534
 H  -1.60932553  -0.83882016   4.11537959
 H  -0.32551554  -2.05075370   3.98612751
 H  -0.09487839  -0.62624102   5.00490716
 N   1.63183973   1.30609547  -0.52534137
 H   0.90020325   1.78131826  -1.03436846
 C   2.99986039   1.52592350  -0.93867745
 H   3.43526404   0.55949725  -1.23127901
 C   3.88685494   2.01408685   0.19647033
 C   3.08509676   2.48913026  -2.12570971
 H   4.14002331   2.62605187  -2.36098306
 H   2.68378142   3.45907566  -1.81848753
 O   5.02597813   2.36925229   0.02279774
 C   2.33360456   1.95811278  -3.33355197
 H   2.66081631   0.92970906  -3.53122548
 H   1.26623057   1.90978211  -3.11140878
 C   2.51566821   2.75506920  -4.61175700
 H   1.84352581   2.34217413  -5.35915651
 H   3.53540824   2.65326622  -4.99454379
 N   2.17435023   4.18110160  -4.39219919
 H   2.67339636   4.58712066  -3.61305650
 N   1.75308924   4.57177597  -6.65499989
 H   1.54054484   5.23734981  -7.38148212
 H   1.29543084   3.67560314  -6.74365404
 N   2.23052934   6.35549265  -5.21376338
 H   1.83201218   6.98578233  -5.89421503
 H   2.16085061   6.68745329  -4.26078154
 C   2.03570934   5.02900265  -5.42542811
 O   3.30640095   1.98112411   1.41163769
 H   3.98192540   2.27173876   2.03943237
 H  -0.07428841   0.11251078  -8.10295286
