21
conf-112
 N  -1.62724218   0.16449510  -4.21036723
 H  -1.38632560   1.15045280  -4.20554462
 H  -1.54022223  -0.15321556  -5.16989523
 C  -0.66208743  -0.53765620  -3.37398209
 H  -1.01534916  -1.56418995  -3.20873391
 C  -0.61177631   0.19330462  -2.04760956
 C   0.74575063  -0.56828193  -3.98955352
 H   1.09116629   0.46643169  -4.05828919
 H   0.66246458  -0.94929468  -5.00838080
 O  -0.34414874   1.38774152  -1.99815179
 C   1.75088001  -1.41559963  -3.21211768
 H   1.84842645  -1.08489737  -2.17932826
 H   1.41459183  -2.45697878  -3.19657272
 C   3.11084830  -1.40619860  -3.83885602
 O   4.14407315  -1.08264455  -3.29924350
 O   3.08139557  -1.83367885  -5.11847177
 N  -0.87450440  -0.53749981  -0.92735019
 H  -0.76120483  -1.53465720  -1.00767425
 C  -0.46640010   0.02848201   0.36053901
 H  -0.94934702   1.00284498   0.43684550
 C   1.05129916   0.22568782   0.33729095
 C  -0.86663823  -0.88393700   1.50431802
 H  -0.43232524  -0.50191631   2.43242136
 H  -0.41166741  -1.85765886   1.32303585
 O   1.80170478  -0.70972566   0.01969992
 C  -2.37718166  -1.03920274   1.69203591
 H  -2.80704972  -1.38175410   0.74719463
 C  -2.65514616  -2.09864107   2.75516307
 H  -2.24236363  -1.78719315   3.71857216
 H  -3.72873767  -2.25640987   2.88439121
 H  -2.20475168  -3.05757424   2.48861369
 C  -3.03735078   0.28251280   2.07030895
 H  -2.63135386   0.64969276   3.01791090
 H  -2.88003630   1.05382246   1.31373891
 H  -4.11552357   0.15360430   2.19546252
 N   1.50881618   1.45301160   0.65759424
 H   0.86118191   2.21351235   0.78736585
 C   2.90850379   1.75581352   0.40608158
 H   3.49744607   0.91166557   0.77155435
 C   3.32331303   2.98419202   1.17924514
 C   3.20615452   1.93106592  -1.09490111
 H   2.70002952   2.81863597  -1.46802849
 H   2.76568279   1.06999224  -1.60405897
 O   4.40155904   3.15478081   1.68866645
 C   4.69451784   1.97183739  -1.40002782
 H   5.20539402   2.72866564  -0.80134489
 H   5.12833904   1.00289998  -1.12437855
 C   4.96217337   2.22295611  -2.86960177
 H   4.40500564   1.50104670  -3.46629918
 H   6.02732129   2.09201642  -3.09781804
 N   4.51546099   3.59011994  -3.21723948
 H   4.72528944   4.28233329  -2.51043862
 N   4.89628737   3.23883667  -5.49816654
 H   4.67241066   3.53337696  -6.43545047
 H   4.85203308   2.24709993  -5.32903302
 N   4.44321205   5.39106371  -4.67334599
 H   4.28762432   5.69773396  -5.62143895
 H   3.91572960   5.89973958  -3.97690055
 C   4.60450316   4.06131611  -4.47239769
 O   2.34778903   3.91811260   1.20083746
 H   2.69411143   4.67555151   1.68891986
 H   3.99734426  -1.82261222  -5.42365726
