21
conf-433
 N  -2.62281626  -1.98266209  -3.67781591
 H  -3.06373550  -1.07194747  -3.74650575
 H  -2.58551513  -2.37259869  -4.60788068
 C  -1.28541311  -1.79503727  -3.15306843
 H  -0.91952839  -2.75497358  -2.76582105
 C  -1.37113857  -0.80845398  -1.98422961
 C  -0.26713779  -1.27432263  -4.17728784
 H   0.65657260  -1.00458281  -3.65768612
 H  -0.64865872  -0.35919963  -4.62943811
 O  -2.21853873   0.07105399  -1.93983905
 C   0.06188199  -2.28679341  -5.26898409
 H   0.42949497  -3.22516050  -4.84725686
 H  -0.82512395  -2.53625891  -5.86138852
 C   1.09090237  -1.76414933  -6.23534117
 O   1.44435065  -0.61692892  -6.34096595
 O   1.58159386  -2.75001115  -7.02282807
 N  -0.41038443  -0.96889753  -1.03333628
 H   0.39711700  -1.53711504  -1.23755074
 C  -0.17097339   0.02581859  -0.01168945
 H  -0.70905088   0.93474033  -0.28781336
 C   1.33898345   0.29504646  -0.00396681
 C  -0.63326271  -0.43161605   1.37245388
 H  -0.31812987   0.31363705   2.10727427
 H  -0.11114515  -1.35901801   1.61936308
 O   2.13402052  -0.48389455  -0.50230404
 C  -2.13972175  -0.65724888   1.52440623
 H  -2.45867870  -1.36556715   0.75983852
 C  -2.42372525  -1.27584832   2.89047605
 H  -2.10303182  -0.60026430   3.68784500
 H  -3.49074224  -1.47178303   3.01893502
 H  -1.89105749  -2.22193638   3.00877272
 C  -2.93176517   0.63552820   1.34736711
 H  -2.62777280   1.36957955   2.09955122
 H  -2.78474769   1.07117805   0.35898572
 H  -4.00059279   0.44591724   1.47517062
 N   1.71668556   1.44530454   0.60921262
 H   1.04049583   1.99276471   1.11811308
 C   3.11090345   1.72854837   0.88130156
 H   3.67123476   0.79066431   0.81940973
 C   3.21549826   2.27601366   2.28899494
 C   3.73081561   2.72534766  -0.10560987
 H   4.75636812   2.92220901   0.20278063
 H   3.20502990   3.67754850  -0.05223258
 O   2.30092156   2.73220391   2.92852212
 C   3.71324745   2.21075445  -1.53493305
 H   4.26526186   1.26773079  -1.57799948
 H   2.69325398   1.98386516  -1.84478298
 C   4.29926537   3.20815051  -2.52936148
 H   3.65205018   4.08332591  -2.59778318
 H   4.34157536   2.76057189  -3.52255414
 N   5.67572265   3.63645481  -2.19984309
 H   6.31943888   2.85612048  -2.18859744
 N   5.03306715   5.53257951  -0.99606867
 H   5.28329241   6.27369808  -0.36277628
 H   4.41253298   5.80459619  -1.74392113
 N   7.02632928   4.42885324  -0.45360473
 H   7.35756453   5.25568123   0.02384372
 H   7.76879094   3.81966263  -0.76885415
 C   5.92321429   4.54759639  -1.24008468
 O   4.47953581   2.22134525   2.75395285
 H   4.45221943   2.61195895   3.63661939
 H   2.21256279  -2.32435054  -7.61809299
