21
conf-110
 N  -7.27361857   0.95737187   5.93129298
 H  -6.75345683   1.00255704   6.80831509
 H  -8.13532304   0.40765237   6.05561750
 H  -7.51482815   1.90385806   5.62844160
 C  -6.49150718   0.31054514   4.86760133
 H  -6.02147471  -0.59239331   5.26343828
 C  -5.41032015   1.27542757   4.37082957
 C  -7.40008705  -0.06774407   3.69685910
 H  -7.86388168   0.84165679   3.31193655
 H  -6.82802308  -0.50747736   2.88100092
 O  -5.61721700   2.48253722   4.30960161
 C  -8.52567453  -1.01758861   4.09479411
 N  -8.91315229  -1.88636792   3.13332350
 H  -9.66662164  -2.51874193   3.34119810
 H  -8.48306825  -1.91136347   2.22750680
 O  -9.06733510  -0.97216053   5.18940424
 N  -4.24856114   0.69331983   3.97932183
 H  -4.20081280  -0.30977233   3.89085050
 C  -3.21664560   1.42129764   3.25876921
 H  -3.61548972   2.39696381   2.98390882
 C  -2.90152048   0.61782763   2.00509630
 C  -1.94577347   1.63430584   4.11388719
 H  -1.63922083   0.63762073   4.45416624
 O  -2.79248722  -0.60231420   2.04192336
 C  -2.23854987   2.46681255   5.37043496
 H  -1.34404618   2.43484202   6.00028340
 H  -3.03053190   1.98326744   5.94871840
 C  -0.79156734   2.24785566   3.31155438
 H  -1.11284037   3.14248531   2.76918134
 H   0.01868753   2.54025816   3.98308589
 H  -0.37239838   1.55551830   2.57351411
 C  -2.61050731   3.91965069   5.10025861
 H  -2.79466542   4.44716465   6.03800289
 H  -1.80704986   4.44337519   4.57716493
 H  -3.51700517   3.99095403   4.49447737
 N  -2.74713853   1.33790362   0.85752962
 H  -2.57659758   2.32552996   0.96037799
 C  -2.13051939   0.72346337  -0.31372389
 H  -2.51406887  -0.29581340  -0.36920670
 C  -0.60109525   0.68727036  -0.11462213
 C  -2.46405504   1.50894296  -1.56988619
 H  -2.01260430   1.02689908  -2.44166646
 H  -3.54406517   1.56117055  -1.70427196
 H  -2.05967477   2.51943247  -1.50042492
 O   0.06499382   1.73762776   0.05754794
 N  -0.05400439  -0.55534302  -0.13759549
 H  -0.64147281  -1.37350421  -0.18706449
 C   1.34117401  -0.75615264   0.20597511
 H   1.69695595   0.15465502   0.69503191
 C   2.12594725  -0.95057901  -1.08030751
 C   1.46734857  -1.91352495   1.17927122
 H   2.52895189  -2.12812528   1.33201238
 O   2.60295057  -2.04085659  -1.40704778
 C   0.79880245  -1.56987089   2.49420761
 H   1.27505607  -0.69266073   2.94151834
 H   0.88441964  -2.40677874   3.18844940
 H  -0.25943448  -1.35452546   2.33980187
 O   0.81606514  -3.05498682   0.63956367
 H   1.34994772  -3.32357312  -0.11660268
 N   2.23709133   0.14206485  -1.85958293
 H   1.73674261   0.98098792  -1.59220315
 C   2.78235849   0.02310408  -3.20249574
 H   2.53260215  -0.98382372  -3.55080942
 C   4.30462260   0.17508234  -3.16397808
 C   2.17398230   1.05026519  -4.13062449
 H   2.65357541   0.95642623  -5.11337314
 H   2.38401780   2.05507087  -3.74935959
 O   4.89051587   1.13415672  -3.67240412
 O   0.77562300   0.78322086  -4.19895459
 H   0.38773358   1.40525220  -4.81966271
 N   4.96777417  -0.80665929  -2.52364044
 H   4.44423980  -1.59291336  -2.15506799
 C   6.41265829  -0.81087619  -2.45397409
 H   6.73450271   0.21991282  -2.29145354
 H   6.74128218  -1.42225954  -1.61555039
 C   7.07349555  -1.36946641  -3.71075479
 O   7.76783033  -2.37546179  -3.69906679
 N   6.80489853  -0.67903663  -4.84775978
 H   6.33664003   0.21498357  -4.78521864
 C   7.43077617  -1.05803262  -6.09071977
 H   7.42465938  -2.15073106  -6.15762939
 C   8.88966500  -0.63990368  -6.15751183
 C   6.67639359  -0.46559190  -7.28315314
 H   6.70667080   0.62327097  -7.22138485
 H   7.20915410  -0.75017218  -8.19340389
 O   9.73369842  -1.23377777  -6.77836479
 C   5.23722081  -0.94815889  -7.35456300
 H   5.22233454  -2.03981393  -7.37831601
 H   4.70741662  -0.65185359  -6.44508938
 C   4.49619514  -0.39953582  -8.56301797
 H   5.00760134  -0.71589046  -9.47909987
 H   4.53257696   0.69583264  -8.54619890
 C   3.04826591  -0.84621022  -8.62371118
 H   2.55381412  -0.57222038  -7.68474086
 H   2.52777027  -0.30829063  -9.42773331
 N   2.96764468  -2.30518688  -8.75747101
 H   3.33146492  -2.58837774  -9.66101944
 H   2.00087851  -2.60499088  -8.73926172
 O   9.13606458   0.50441485  -5.48540010
 H   10.07407694   0.69236345  -5.60558980
