21
conf-896
 N   2.52248209  -2.47340549  -5.43451009
 H   2.01807840  -2.68716149  -6.29667523
 H   2.68135598  -1.46375317  -5.39925283
 H   3.42170273  -2.95872463  -5.42627325
 C   1.73640152  -2.84410940  -4.24005684
 H   1.28000608  -3.82106562  -4.41026263
 C   0.64723934  -1.79866929  -4.02791324
 C   2.64150892  -2.93959842  -3.01376000
 H   3.07621697  -1.96069767  -2.82160117
 H   2.04339055  -3.20351131  -2.14033496
 O   0.89174908  -0.59995457  -4.19296717
 C   3.73861612  -3.95428247  -3.21046211
 C   3.43860484  -5.31405524  -3.24605474
 H   2.40926289  -5.62234150  -3.10187252
 C   5.05437172  -3.55415161  -3.42240079
 H   5.29914672  -2.49659500  -3.42498259
 C   4.43469277  -6.26056758  -3.46150399
 H   4.17887590  -7.31384307  -3.47485881
 C   6.05453978  -4.49403122  -3.65701593
 H   7.07182134  -4.16106456  -3.82631123
 C   5.74856342  -5.85112543  -3.67168553
 H   6.52776945  -6.58415781  -3.84681977
 N  -0.56750649  -2.24128890  -3.64493547
 H  -0.73103199  -3.22994848  -3.53119142
 C  -1.70026894  -1.33925317  -3.48595195
 H  -1.73434866  -0.64584550  -4.33140554
 C  -1.62299204  -0.46153607  -2.22720266
 C  -2.99456061  -2.15041300  -3.48875164
 H  -3.83437941  -1.49907231  -3.24117246
 H  -2.92609535  -2.93202140  -2.71970897
 O  -2.23636677   0.59396075  -2.17160518
 O  -3.26523051  -2.69628409  -4.76791120
 H  -2.46098211  -3.10987243  -5.08494943
 N  -0.90423807  -0.95654659  -1.19138544
 H  -0.29910254  -1.74580275  -1.33106404
 C  -0.43336678  -0.05369428  -0.16744927
 H  -0.62276080   0.96786646  -0.50789716
 C   1.06759647  -0.29684984  -0.01912249
 C  -1.16624475  -0.26124599   1.13530751
 H  -2.23965243  -0.18949508   0.93104355
 H  -0.88649982   0.54197898   1.83313512
 O   1.60003818  -1.30048295  -0.47316077
 O  -0.80560701  -1.54254163   1.63549356
 H  -1.29504232  -1.70365494   2.44615978
 N   1.76250670   0.66709908   0.61818837
 H   1.29611917   1.47594262   0.99160165
 C   3.19823281   0.78656841   0.44534441
 H   3.58322132  -0.20670591   0.23633734
 C   3.76073083   1.35914148   1.74960079
 C   3.56411793   1.73157015  -0.72885042
 H   3.33900259   2.75866561  -0.44139717
 H   4.62761657   1.64530337  -0.94851361
 O   3.15766448   2.21733526   2.37133011
 C   2.72756054   1.43051062  -1.95116244
 O   1.71061183   2.03744919  -2.22025835
 O   3.15396406   0.39850074  -2.67748710
 N   4.96755897   0.88860371   2.13474675
 H   5.59001948   0.34757376   1.54382838
 C   5.68165229   1.48223606   3.23356129
 H   5.62317626   2.57932102   3.16932983
 C   7.15881220   1.02975417   3.04722790
 C   5.13132715   1.04668593   4.59351446
 H   5.36214121  -0.01142702   4.75184400
 H   4.04463068   1.13530907   4.54268370
 O   7.97613224   1.42043162   3.89132862
 C   5.67359716   1.89909892   5.73464068
 H   5.34160092   2.92976932   5.58595781
 H   6.76316020   1.90557664   5.70984274
 C   5.18463081   1.41766680   7.08620754
 H   4.09125275   1.42488506   7.10045720
 H   5.50886100   0.38264104   7.25511363
 N   5.69509521   2.30786975   8.14613329
 H   6.62177143   2.67142956   7.97590234
 N   4.53115706   1.15699080   9.81861726
 H   4.12039913   1.20565107   10.73656552
 H   3.97140149   0.72160399   9.10560838
 N   6.08513852   2.82885595   10.36784335
 H   6.45274361   3.71993344   10.06400362
 H   5.72101879   2.82705870   11.30784518
 C   5.41526072   2.09942698   9.44370717
 O   7.38030036   0.32446868   2.04135833
 H   2.41379349   0.28824560  -3.32860139
