21
conf-966
 N  -5.33701963  -0.60339694  -5.38886095
 H  -5.07144916  -0.66229900  -6.37275171
 H  -5.30861458  -1.55148148  -4.99882567
 H  -6.27097921  -0.20381671  -5.29158876
 C  -4.35801250   0.17279773  -4.60960232
 H  -3.96432700   0.98663881  -5.22283011
 C  -3.23743639  -0.78472627  -4.20372277
 C  -5.00981480   0.77501419  -3.36274552
 H  -5.36731562  -0.03797272  -2.72634912
 H  -4.25031688   1.31961655  -2.79790985
 O  -3.43455219  -1.98795462  -4.14394432
 C  -6.15098545   1.69579717  -3.71394053
 C  -7.47012729   1.32528627  -3.47303143
 H  -7.67762860   0.36982202  -3.00084700
 C  -5.90391809   2.91243257  -4.34671768
 H  -4.87758814   3.19222006  -4.55505218
 C  -8.52411316   2.15622463  -3.84249282
 H  -9.54419139   1.84562066  -3.64940459
 C  -6.95000820   3.75683258  -4.70416100
 H  -6.73220611   4.70366303  -5.18518787
 C  -8.26596828   3.37844764  -4.45568809
 H  -9.08452439   4.03033191  -4.73882505
 N  -2.04395861  -0.21211304  -3.90159932
 H  -1.97429879   0.79078599  -3.82246261
 C  -0.95402431  -0.96831468  -3.30801261
 H  -1.33218191  -1.95817173  -3.06156682
 C  -0.50133819  -0.21463081  -2.06851674
 C   0.19884888  -1.09769703  -4.30028014
 H   1.06499290  -1.55617331  -3.82234615
 H   0.46897981  -0.08601566  -4.62703828
 O  -0.28749739   0.99656959  -2.11557827
 O  -0.13964864  -1.92750031  -5.39686309
 H  -0.84958643  -1.49480075  -5.87696598
 N  -0.34731717  -0.93159821  -0.93857310
 H  -0.41468688  -1.93593694  -0.97225712
 C   0.11528515  -0.30009134   0.28694187
 H  -0.27845760   0.71823484   0.28314163
 C   1.65291460  -0.26498785   0.27647578
 C  -0.41622836  -1.02931380   1.49825259
 H   0.10115901  -1.98805207   1.61764107
 H  -1.48391394  -1.21549651   1.34743208
 O   2.34295905  -0.99553191   0.97318495
 O  -0.20738204  -0.17014502   2.61411820
 H  -0.33871892  -0.67895583   3.41650420
 N   2.18144992   0.59217150  -0.63570943
 H   1.57234974   1.21548146  -1.14787033
 C   3.60809826   0.78284850  -0.75070325
 H   4.09375279  -0.14867038  -0.45517437
 C   4.02037299   1.93138472   0.18205119
 C   4.01321149   1.16587949  -2.17263857
 H   3.53481716   2.10195947  -2.46050105
 H   5.09137640   1.33378747  -2.20760835
 O   3.46571576   3.01819328   0.12493282
 C   3.70864844   0.11551732  -3.20823981
 O   3.33603664  -1.01347142  -2.98614270
 O   3.93626028   0.57482353  -4.45294297
 N   5.03380598   1.66791725   1.03505672
 H   5.66282108   0.88120733   0.93705239
 C   5.62627459   2.71840159   1.81780607
 H   5.77793015   3.60644751   1.18488476
 C   7.01165566   2.16369263   2.25728042
 C   4.76110407   3.11606573   3.01743949
 H   4.84315583   2.34935665   3.79221253
 H   3.72942319   3.11758647   2.66356082
 O   7.69308278   2.87572164   3.00597721
 C   5.15147076   4.48740737   3.55203592
 H   4.90457401   5.24363500   2.80267698
 H   6.23362721   4.52221819   3.68928675
 C   4.47158688   4.84626522   4.85764734
 H   4.71666224   4.10537756   5.62891071
 H   4.84687647   5.81348468   5.20315088
 N   3.01058933   4.93351181   4.66038782
 H   2.64747561   4.27686241   3.98364558
 N   2.64103290   5.57921215   6.87914751
 H   2.01975060   6.04544335   7.52041542
 H   3.61370704   5.82646541   6.95195650
 N   0.84220325   5.03269889   5.47614614
 H   0.50755887   5.08300976   4.52294880
 H   0.22251403   5.44611961   6.15575963
 C   2.17339550   5.20097362   5.67342149
 O   7.31294957   1.04861409   1.78508858
 H   3.76062311  -0.16591990  -5.04770941
