21
conf-684
 N  -5.52765810  -0.30988396  -6.17699297
 H  -5.31307423  -0.52214924  -7.15229258
 H  -5.67503063  -1.19969224  -5.68640043
 H  -6.35680659   0.28125180  -6.11001450
 C  -4.38541695   0.32175968  -5.49461837
 H  -3.83397203   0.95120892  -6.19696273
 C  -3.49626018  -0.80074946  -4.96761907
 C  -4.86261065   1.19331366  -4.32793373
 H  -5.38393258   0.55755248  -3.60729973
 H  -3.98952156   1.60897805  -3.82106735
 O  -3.95414992  -1.90985856  -4.74879827
 C  -5.77226515   2.30181592  -4.79045889
 C  -7.13527669   2.27024298  -4.51373703
 H  -7.54242814   1.44868461  -3.93220725
 C  -5.27148277   3.34990278  -5.56044956
 H  -4.21347705   3.36510250  -5.79599169
 C  -7.98297729   3.27003305  -4.98248149
 H  -9.04224896   3.22295845  -4.75860319
 C  -6.10826091   4.36221941  -6.01900053
 H  -5.69332252   5.17301833  -6.60706370
 C  -7.46983680   4.32290140  -5.73396046
 H  -8.12650950   5.10598173  -6.09550310
 N  -2.18840595  -0.47912641  -4.74187909
 H  -1.96687301   0.49959061  -4.66218157
 C  -1.39793349  -1.33644399  -3.88987619
 H  -1.84263169  -2.33155276  -3.92186396
 C  -1.42529268  -0.80498792  -2.45401268
 C   0.04334065  -1.43309141  -4.38988473
 H   0.52144819  -0.44373338  -4.36092966
 H   0.03461028  -1.79423810  -5.41732146
 O  -1.59658271   0.38028171  -2.20678455
 O   0.76534272  -2.37574893  -3.61999019
 H   1.11993067  -1.91727603  -2.84138353
 N  -1.22512837  -1.73312956  -1.48866316
 H  -0.85288898  -2.62165571  -1.78940028
 C  -0.79892152  -1.31155004  -0.16828076
 H  -1.47111084  -0.51141389   0.14752312
 C   0.63608755  -0.75863838  -0.20000770
 C  -0.93484600  -2.48359780   0.78083740
 H  -1.98382259  -2.79188230   0.79756751
 H  -0.63380751  -2.18585063   1.79217649
 O   1.33472548  -0.79711849  -1.20825512
 O  -0.10350689  -3.52434264   0.26951230
 H   0.03783621  -4.17390577   0.96402866
 N   1.06898150  -0.23042376   0.96199675
 H   0.43973283  -0.11859991   1.74173769
 C   2.29800475   0.53738360   1.03609492
 H   3.00141135   0.11230317   0.32169903
 C   2.80552468   0.41346936   2.47469979
 C   2.07129578   2.03242221   0.69769602
 H   1.44497218   2.48356950   1.47031466
 H   3.03148155   2.54423689   0.65596148
 O   2.03546903   0.50466570   3.42052856
 C   1.40107611   2.16385396  -0.65058378
 O   1.98267376   2.25912384  -1.70261743
 O   0.06221675   2.14452968  -0.52980822
 N   4.14280569   0.23090634   2.61891085
 H   4.80212174   0.45755117   1.87794315
 C   4.78392048   0.37751713   3.89568428
 H   4.19071326   1.02771117   4.55431969
 C   6.17074797   1.02976398   3.60578060
 C   5.06476763  -0.93616106   4.62802730
 H   5.72624642  -0.67733552   5.45799756
 H   5.62029551  -1.60987734   3.96639582
 O   6.83852648   1.37230677   4.58399791
 C   3.79968485  -1.61013322   5.13045359
 H   3.16180667  -1.88951533   4.29356334
 H   3.23556516  -0.89833711   5.73097427
 C   4.07640300  -2.85238518   5.96637298
 H   3.13958796  -3.29774691   6.31316970
 H   4.56679974  -3.61228059   5.35480845
 N   4.96734679  -2.63405758   7.12289320
 H   5.95075807  -2.61915655   6.89098157
 N   3.36041658  -1.40994178   8.28991942
 H   3.05876460  -1.04323884   9.17831864
 H   2.64961879  -1.87431019   7.74901288
 N   5.59079384  -1.43857505   9.01673906
 H   6.43859120  -1.98832463   9.05696778
 H   5.29168913  -1.05808565   9.90248536
 C   4.62868338  -1.84197270   8.15036922
 O   6.45460731   1.13832242   2.39068979
 H  -0.31092802   2.02580630  -1.42055801
