21
conf-950
 N  -4.38616690  -2.45053742  -5.05348534
 H  -3.89657274  -2.24201192  -5.92663248
 H  -4.01446827  -3.33194139  -4.69172657
 H  -5.37639050  -2.57857491  -5.26125869
 C  -4.18249373  -1.36827040  -4.05731814
 H  -4.50480862  -0.41958651  -4.49607251
 C  -2.69390986  -1.28258408  -3.70907156
 C  -4.98457595  -1.63542613  -2.78467330
 H  -6.01963890  -1.83262899  -3.07388728
 H  -4.58234476  -2.54540634  -2.33755470
 O  -2.07890983  -2.26307386  -3.24981928
 C  -4.91919945  -0.49092568  -1.81100495
 C  -3.83682195  -0.38419103  -0.93342363
 H  -3.08036781  -1.16194325  -0.96920323
 C  -5.89333859   0.50616333  -1.79649586
 H  -6.74500583   0.43368930  -2.46253215
 C  -3.73098144   0.69598008  -0.05938816
 H  -2.89431682   0.76497032   0.61761107
 C  -5.78720719   1.58931970  -0.92861422
 H  -6.55522897   2.35486486  -0.93405273
 C  -4.70600979   1.68821055  -0.05977946
 H  -4.62500199   2.53197581   0.61749612
 N  -2.11664399  -0.08685508  -3.96180755
 H  -2.66657395   0.70954317  -4.24600877
 C  -0.68601364   0.09855007  -3.83678677
 H  -0.22945116  -0.87805280  -4.00949480
 C  -0.32354791   0.59460196  -2.43227579
 C  -0.22689719   1.10221124  -4.87675555
 H  -0.39318818   0.68760531  -5.87260290
 H   0.84372055   1.30819499  -4.75228811
 O  -0.16533931   1.79689889  -2.19268656
 O  -0.98821551   2.29013270  -4.79204076
 H  -0.77863589   2.64991845  -3.92044419
 N  -0.18774499  -0.35111277  -1.48869596
 H  -0.45053981  -1.30159121  -1.70927333
 C   0.30221892  -0.01606610  -0.16009162
 H  -0.19523401   0.90752425   0.14902365
 C   1.81661660   0.20157829  -0.21090400
 C   0.00136578  -1.14075426   0.80375558
 H   0.42937063  -0.91883483   1.78828538
 H   0.46244684  -2.05804546   0.42172239
 O   2.59505039  -0.72927745  -0.38099958
 O  -1.41499339  -1.26547639   0.88621108
 H  -1.62137275  -2.00859255   1.46094451
 N   2.21601866   1.48564478  -0.08987094
 H   1.51553435   2.20804714  -0.04038430
 C   3.57609391   1.88540449  -0.39317950
 H   3.87272488   1.41013348  -1.33442516
 C   4.50963588   1.38373261   0.71295329
 C   3.68243497   3.41675216  -0.52479847
 H   3.41034510   3.86272802   0.43107129
 H   4.70670100   3.69168005  -0.77435676
 O   4.24994675   1.51257356   1.89784515
 C   2.78525197   3.91481494  -1.62751742
 O   3.12252996   4.17594524  -2.75388516
 O   1.50588874   4.01217748  -1.19978558
 N   5.64222000   0.77868587   0.27082119
 H   6.06673201   0.97065151  -0.62973747
 C   6.61859809   0.28061969   1.18952040
 H   6.53987911   0.81662875   2.14229040
 C   8.00456433   0.53435151   0.52195940
 C   6.50038271  -1.22560719   1.43962022
 H   7.31261389  -1.50267186   2.11563107
 H   6.66070325  -1.74860987   0.49104621
 O   7.93783776   0.89824010  -0.67422436
 C   5.14817600  -1.59994505   2.02757381
 H   4.36870870  -1.45212391   1.28658024
 H   4.92453039  -0.92675875   2.85678290
 C   5.08903555  -3.02928387   2.53526242
 H   5.85934062  -3.19733347   3.29661774
 H   4.11819317  -3.19901581   3.00918885
 N   5.25268491  -3.97127406   1.41078845
 H   5.82769165  -3.62373201   0.65647176
 N   5.01082740  -5.84128973   2.79175767
 H   4.76611364  -6.81689924   2.84392731
 H   4.60177108  -5.24776266   3.49387534
 N   5.65685872  -6.08796331   0.54901407
 H   5.53460568  -5.71227766  -0.38203134
 H   5.45704180  -7.07315034   0.62825425
 C   5.28628246  -5.29917127   1.58849382
 O   9.00273659   0.34415614   1.21815965
 H   0.92713028   4.12533625  -1.96547709
