21
conf-126
 N  -4.07398801  -2.29395628  -4.77670900
 H  -3.73719470  -2.99316235  -5.43973788
 H  -3.87857097  -2.65097940  -3.83528905
 H  -5.07341145  -2.15144105  -4.90213398
 C  -3.30425635  -1.03770095  -4.87951680
 H  -2.96821726  -0.88412932  -5.90953346
 C  -2.08951065  -1.21318293  -3.95398988
 C  -4.15835152   0.17331572  -4.46862938
 H  -5.11421302   0.09299105  -4.99560605
 H  -4.35922658   0.11219477  -3.39512192
 O  -2.10303829  -2.05638775  -3.06948858
 C  -3.49333754   1.48301864  -4.80852251
 C  -2.72115425   2.14792909  -3.86594411
 H  -2.64141127   1.74702178  -2.86136162
 C  -3.56167605   1.99723286  -6.10317951
 H  -4.17256357   1.48938258  -6.84244966
 C  -1.95088350   3.24575972  -4.22881389
 H  -1.28359442   3.66585098  -3.49025739
 C  -2.85296950   3.14296563  -6.45001746
 H  -2.92718757   3.53494385  -7.45723347
 C  -2.03009404   3.76684154  -5.51225184
 H  -1.45505385   4.64310130  -5.79103064
 N  -1.02268353  -0.40991018  -4.19223138
 H  -1.14574051   0.39906356  -4.77793049
 C   0.13849200  -0.43539842  -3.33065696
 H   0.20611575  -1.43931341  -2.92133607
 C   0.05167937   0.56181431  -2.15230485
 C   1.38967891  -0.10286960  -4.13120426
 H   2.23981726  -0.00550731  -3.44476716
 H   1.23498437   0.87295023  -4.61240268
 O  -0.29517704   1.73843912  -2.26781489
 O   1.57689137  -1.14648947  -5.07459514
 H   2.29510402  -0.89800575  -5.66193990
 N   0.50931353   0.05761467  -0.95953452
 H   1.09642441  -0.75621886  -1.03371838
 C   0.95973298   1.02037069   0.02252686
 H   0.30498170   1.88582567  -0.04689066
 C   2.40683419   1.43753759  -0.28411902
 C   0.84248192   0.43147693   1.42601684
 H   1.55179476  -0.40311073   1.54230465
 H  -0.16928996   0.04110588   1.53380620
 O   3.14324433   0.78367341  -1.00114883
 O   1.01604136   1.42051253   2.42540160
 H   1.92909461   1.41193640   2.74935709
 N   2.79500615   2.59610892   0.32111968
 H   2.17260749   2.93819015   1.04003469
 C   4.21054363   2.88059190   0.51140415
 H   4.74158990   2.51167687  -0.35964024
 C   4.70513439   2.15399754   1.79027889
 C   4.42967366   4.38106155   0.70862341
 H   3.82899722   4.93384505  -0.01331101
 H   4.11320699   4.65856282   1.71635777
 O   4.09806507   2.28680799   2.86491112
 C   5.86253894   4.77888321   0.50102891
 O   6.66868899   4.14792544  -0.13921654
 O   6.15617283   5.95003032   1.09524667
 N   5.83550948   1.40247615   1.62419894
 H   6.50408051   1.61980566   0.88787081
 C   6.50222166   0.81919819   2.75578855
 H   6.22528747   1.35057269   3.67931324
 C   8.02117669   0.98953505   2.48694716
 C   6.22859614  -0.67224941   2.93940436
 H   6.96931267  -1.05216441   3.64923226
 H   6.38904761  -1.18841155   1.99195253
 O   8.78844685   0.73294817   3.41649440
 C   4.82808454  -0.95141817   3.46173886
 H   4.08264303  -0.47685649   2.81919998
 H   4.71691939  -0.48512058   4.44771413
 C   4.56019977  -2.43583937   3.59852608
 H   5.34745640  -2.87557243   4.21413839
 H   3.60323583  -2.61958160   4.09866925
 N   4.58590594  -3.06998434   2.26102526
 H   4.11284659  -2.53731332   1.54421147
 N   4.50849991  -5.23227973   3.16031135
 H   4.70846643  -6.20692435   3.00114845
 H   4.82295615  -4.85799409   4.04016454
 N   4.21680744  -4.87416114   0.85946463
 H   4.51352979  -4.29791167   0.08359491
 H   4.33654853  -5.86491289   0.71406669
 C   4.45515588  -4.39867712   2.10510580
 O   8.29812992   1.36940509   1.32582542
 H   7.08303792   6.13432339   0.89189580
