21
conf-156
 N  -3.61925364  -2.75971498  -4.27768917
 H  -3.36401333  -2.88739172  -5.25811080
 H  -2.80121471  -3.01512960  -3.71717498
 H  -4.40362029  -3.36493856  -4.04682298
 C  -3.90360581  -1.34457406  -3.97419863
 H  -4.44045351  -0.88058455  -4.80781969
 C  -2.55611291  -0.64657632  -3.79155840
 C  -4.77261398  -1.20764151  -2.71989459
 H  -5.70136137  -1.75419025  -2.90444645
 H  -4.25864775  -1.68860723  -1.88484618
 O  -1.55124896  -1.29013398  -3.50103869
 C  -5.04657196   0.23771407  -2.39618171
 C  -4.35330332   0.86138665  -1.36715340
 H  -3.69890269   0.25663134  -0.75341048
 C  -5.88772753   0.99625915  -3.20758937
 H  -6.42507518   0.50096499  -4.01352728
 C  -4.44973317   2.23485433  -1.18560099
 H  -3.87446900   2.71715681  -0.41067645
 C  -5.98959027   2.37037026  -3.02674286
 H  -6.62196510   2.94978600  -3.68914869
 C  -5.26231170   2.99799426  -2.02182603
 H  -5.33743170   4.07064122  -1.88584315
 N  -2.53090651   0.69520017  -3.98483036
 H  -3.39246340   1.22294715  -3.85075524
 C  -1.28298728   1.42893448  -3.88389012
 H  -0.50177339   0.74182337  -4.22355681
 C  -1.00138582   1.84631168  -2.43653295
 C  -1.33141138   2.64436792  -4.79942267
 H  -0.42226675   3.23315911  -4.67244142
 H  -2.18125585   3.27661393  -4.50269863
 O  -1.06046428   3.01301460  -2.06337780
 O  -1.39963554   2.26712118  -6.15955686
 H  -2.15630289   1.68259791  -6.24603818
 N  -0.70748775   0.82726877  -1.58866136
 H  -0.61668475  -0.11722902  -1.94774792
 C  -0.16119497   1.08428088  -0.27539489
 H  -0.02571476   2.16011812  -0.18101174
 C   1.17018990   0.34332835  -0.15777918
 C  -1.10675452   0.60763395   0.81159427
 H  -0.61966345   0.69809568   1.79198027
 H  -1.33227409  -0.45175389   0.63534748
 O   1.26874568  -0.82490694  -0.51758511
 O  -2.27450988   1.41498655   0.74430102
 H  -2.93915348   1.06996103   1.34815708
 N   2.18984635   1.03536450   0.39351215
 H   2.08452214   1.96327335   0.77490998
 C   3.49320229   0.43858256   0.57189012
 H   3.38670517  -0.49909086   1.12859273
 C   4.30712093   1.42165126   1.41898318
 C   4.17775438   0.06821062  -0.74893248
 H   5.15383184  -0.38313142  -0.54746250
 H   3.56296029  -0.67524530  -1.25455298
 O   3.83827703   2.45977578   1.84153446
 C   4.40864360   1.23457231  -1.67135446
 O   4.39815549   2.39889699  -1.35862089
 O   4.68509272   0.82025972  -2.92830409
 N   5.57035757   1.03111817   1.67868147
 H   6.04007673   0.24622363   1.24859412
 C   6.50310385   1.87952242   2.36189957
 H   6.47586999   2.89635494   1.94472848
 C   7.89042166   1.21284829   2.07965582
 C   6.24392312   1.95741370   3.86960283
 H   6.51652868   0.99781934   4.30761265
 H   5.17011202   2.08033293   4.02146125
 O   8.89816453   1.78862309   2.52010230
 C   7.00986044   3.11669043   4.50002337
 H   6.46238673   4.04733922   4.31940139
 H   7.97060393   3.22085973   4.00416925
 C   7.24859870   2.96873172   5.99898512
 H   7.87567309   3.78869984   6.35805132
 H   6.31201606   3.01984258   6.55507627
 N   7.87202254   1.68728559   6.39304986
 H   7.22437519   0.96873311   6.67700781
 N   9.93309906   2.10546327   5.34666787
 H   10.36828109   1.78138375   4.48611989
 H   9.63922937   3.07121156   5.30342485
 N   9.32226428  -0.06777181   5.83872867
 H   8.76294233  -0.68987460   6.40963372
 H   10.30813187  -0.29020043   5.80126808
 C   9.01894775   1.25499065   5.85938772
 O   7.85038833   0.15185459   1.42492295
 H   4.83783761   1.62382944  -3.44220108
