21
conf-779
 N  -11.07686453   4.85210524   4.00349679
 H  -11.35751453   5.03919978   3.04031144
 H  -11.45207787   3.93713951   4.26612068
 H  -11.46999916   5.55715332   4.62230464
 C  -9.60841397   4.76107233   4.13485200
 H  -9.13634293   5.44389062   3.41464177
 C  -9.21097122   3.32726812   3.78849135
 C  -9.14610199   5.17407943   5.54880444
 H  -9.56887213   6.17814835   5.68317439
 O  -9.98649845   2.39331464   3.95426281
 C  -9.71729314   4.26246551   6.63025536
 H  -9.29794682   3.26056700   6.53494717
 H  -9.47351431   4.64461673   7.62413233
 H  -10.80194414   4.18039538   6.54937382
 C  -7.62975738   5.27947231   5.67502908
 H  -7.17334172   4.28754327   5.66374347
 H  -7.19198525   5.86922323   4.86436961
 H  -7.36271685   5.75754629   6.62032321
 N  -7.94527797   3.15860626   3.34606426
 H  -7.36965071   3.95784412   3.12566964
 C  -7.44065736   1.86163224   2.91282856
 H  -7.69698062   1.14097121   3.69230444
 C  -5.93170560   2.02541596   2.82559768
 C  -8.08432514   1.35723155   1.59793232
 H  -9.11968999   1.13979964   1.86971744
 O  -5.41093833   2.85984008   2.09318911
 C  -7.43631061   0.06604519   1.08979549
 H  -6.39232203   0.28307521   0.83679407
 H  -7.93432914  -0.19537629   0.15043761
 C  -8.08180178   2.38671788   0.47068339
 H  -7.05766472   2.60272994   0.16552027
 H  -8.55753391   3.32250405   0.76871021
 H  -8.62356423   1.99222107  -0.38978707
 C  -7.52087000  -1.12496652   2.03279837
 H  -7.11663747  -2.02003486   1.55482703
 H  -6.94747735  -0.97107286   2.94935736
 H  -8.55611314  -1.33503718   2.31369102
 N  -5.19774342   1.23951863   3.65790000
 H  -5.63732210   0.43429957   4.06987148
 C  -3.74687575   1.21499554   3.52645632
 H  -3.40288630   2.24960649   3.49467672
 C  -3.37973762   0.52065316   2.21716541
 C  -3.11842551   0.47707009   4.71805928
 H  -3.51838489  -0.53657528   4.73573795
 H  -3.44976451   0.98295801   5.62591897
 O  -3.89129329  -0.55828974   1.91516075
 C  -1.61060175   0.44354612   4.66665201
 C  -0.94372381  -0.64482507   4.10128511
 H  -1.51932539  -1.47783286   3.70514106
 C  -0.85323705   1.51217644   5.15166753
 H  -1.35663937   2.35941292   5.60663192
 C   0.44711066  -0.66379627   4.02442900
 H   0.94059631  -1.51726335   3.57328353
 C   0.53832873   1.49447679   5.07082034
 H   1.10613689   2.33363163   5.45592628
 C   1.19344577   0.40507772   4.50751734
 H   2.27468284   0.38730872   4.44769291
 N  -2.46001700   1.16218169   1.45405201
 H  -2.01449359   1.99595887   1.79899060
 C  -1.78550065   0.48817887   0.36507263
 H  -2.10252352  -0.55446006   0.38325115
 C  -0.28632055   0.57180568   0.63110884
 C  -2.10540620   1.11832981  -0.99091021
 H  -1.52782893   0.60304762  -1.76561690
 H  -1.75550097   2.15268073  -0.97052239
 O   0.23548779   1.58116428   1.06983358
 C  -3.58975685   1.10201961  -1.37096621
 H  -4.15113003   1.59234925  -0.56696764
 C  -3.80100335   1.90335574  -2.65082820
 H  -3.22461393   1.46607722  -3.47036154
 H  -3.47939377   2.93920248  -2.52293951
 H  -4.85305234   1.90975656  -2.94546411
 C  -4.11788550  -0.31922557  -1.52992622
 H  -3.63293811  -0.80834704  -2.38004260
 H  -5.19611434  -0.30663593  -1.71561516
 H  -3.94243422  -0.92261174  -0.63853140
 N   0.43796706  -0.54682419   0.31185685
 H  -0.00009040  -1.16485350  -0.35289829
 C   1.87885792  -0.40056214   0.10541020
 H   2.24928801   0.24053225   0.90678952
 C   2.08195621   0.25246195  -1.25660104
 C   2.53324795  -1.78549085   0.15627906
 H   2.24808066  -2.33741912  -0.73817694
 H   2.09842583  -2.30655090   1.01135103
 O   1.43148827  -0.10101972  -2.22449225
 C   4.04975961  -1.76882091   0.28873250
 H   4.49866115  -1.22991089  -0.54397677
 H   4.37673920  -1.28562401   1.21146772
 C   4.64468784  -3.14584388   0.21613467
 O   4.16069080  -4.08634172  -0.35837150
 O   5.83961960  -3.21291565   0.84504010
 N   3.02484340   1.23704661  -1.32922934
 H   3.67002514   1.29024040  -0.55979595
 C   3.56320294   1.55230232  -2.64845510
 H   2.72120737   1.65280321  -3.32327935
 C   4.49208781   0.41373469  -3.13326037
 C   4.38656158   2.83442293  -2.62063999
 H   3.85723057   3.59293543  -2.04394710
 H   5.34106405   2.62834552  -2.12486257
 O   5.29113458  -0.15361721  -2.36145582
 C   4.61730985   3.36619225  -4.02890441
 N   5.65457163   4.23221568  -4.17556220
 H   5.76261848   4.65867095  -5.07955029
 H   6.14084801   4.60770808  -3.38122074
 O   3.91108443   3.03685767  -4.97455615
 N   4.39074637   0.17987251  -4.46491261
 H   3.96472245   0.90966781  -5.02341038
 C   5.36231671  -0.69016387  -5.11343022
 H   5.71739030  -1.35564889  -4.32309728
 C   6.52126213   0.15342956  -5.65416904
 C   4.66975493  -1.49296648  -6.20801721
 H   3.66784850  -1.71167831  -5.84404109
 H   4.56278925  -0.85778555  -7.09063630
 O   6.67074631   0.41585436  -6.83731174
 C   5.33408642  -2.80412702  -6.55672044
 C   6.69796540  -2.91475835  -6.84105689
 H   7.34328620  -2.04165791  -6.81298294
 C   4.57796941  -3.97849485  -6.58105185
 H   3.52009103  -3.92798498  -6.36143604
 C   7.28500704  -4.14388004  -7.14023687
 H   8.34501217  -4.21207022  -7.35106648
 C   5.14812446  -5.21232815  -6.88033899
 H   4.52974333  -6.10345643  -6.89504329
 O   7.13470891  -6.47171126  -7.46064593
 H   6.49245598  -7.18551929  -7.44074827
 C   6.50892027  -5.29475764  -7.16056233
 N   7.35388707   0.66592967  -4.71424440
 H   7.23757677   0.40610961  -3.74672886
 C   8.59174316   1.23262487  -5.17936490
 H   8.37363084   2.05920739  -5.85886693
 C   9.44827131   0.17412776  -6.00290530
 C   9.51228735   1.67659021  -4.05356784
 H   10.27713479   2.32355451  -4.49673209
 H   8.93584749   2.27064503  -3.33880036
 O   10.32429293   0.73298587  -6.68136488
 C   10.15984749   0.47736473  -3.37318371
 H   9.38996483  -0.28139969  -3.19289959
 H   10.88736158   0.02250840  -4.04618208
 C   10.82234938   0.81534362  -2.05183587
 H   10.09599148   1.27148991  -1.36919338
 H   11.16823499  -0.11191031  -1.58755817
 N   11.97889880   1.71207795  -2.25631502
 H   11.87670741   2.35798317  -3.02619957
 N   12.51068403   1.72812410   0.02209691
 H   13.23187853   1.86975072   0.71078051
 H   11.94330724   0.90615382   0.14337722
 N   13.60007772   3.17192017  -1.47351740
 H   14.28597137   3.35375746  -0.75717925
 H   13.95365491   3.24956136  -2.41789499
 C   12.70317462   2.18404905  -1.23122625
 O   9.18305779  -1.02600575  -5.86327964
 H   6.15317440  -4.12018917   0.72617347
