21
conf-446
 N  -9.09567199  -0.53396265   7.30466350
 H  -10.07255650  -0.82643349   7.29396543
 H  -8.57239474  -1.15491876   6.68383796
 H  -8.72190750  -0.61808260   8.24628731
 C  -8.93798024   0.82908445   6.76975380
 H  -9.78977224   1.44779780   7.07410687
 C  -8.92921119   0.72472397   5.24830190
 C  -7.64698667   1.52073386   7.26706328
 H  -7.56796694   2.44867568   6.69187071
 O  -8.62839019  -0.30806942   4.67215179
 C  -7.73529107   1.88689672   8.74545738
 H  -7.78645218   0.99663139   9.37522429
 H  -6.84980583   2.45241579   9.04343728
 H  -8.61458514   2.50029936   8.95683100
 C  -6.39791975   0.69456506   6.98128818
 H  -6.40480140  -0.23257550   7.55640065
 H  -6.32084504   0.43783974   5.91997245
 H  -5.50475106   1.25655408   7.26704538
 N  -9.24175721   1.88032762   4.57375762
 H  -9.21127094   2.72405002   5.12416282
 C  -8.71042078   2.05924121   3.21925823
 H  -8.83922235   1.11230888   2.69084013
 C  -7.22328092   2.38199312   3.36526746
 C  -9.45741770   3.17295089   2.46113710
 H  -9.41907868   4.06248121   3.09870232
 O  -6.83859729   3.27230513   4.12734108
 C  -10.92215750   2.77829826   2.25324393
 H  -11.31227703   2.33665757   3.17020673
 H  -10.94931490   1.98693765   1.49670790
 C  -8.78747926   3.48498006   1.12214577
 H  -8.72154747   2.57612198   0.51352505
 H  -7.77820393   3.88054891   1.26125158
 H  -9.36076056   4.22206993   0.55761704
 C  -11.82181052   3.93430560   1.83978753
 H  -12.85008238   3.59459627   1.70223393
 H  -11.82691612   4.71512532   2.60579482
 H  -11.49684469   4.39439763   0.90542131
 N  -6.37139501   1.65527168   2.61824917
 H  -6.67928802   0.93766496   1.98062539
 C  -4.96011026   1.95842332   2.61586102
 H  -4.84520601   3.04443569   2.53337520
 C  -4.35553117   1.26685121   1.39556308
 C  -4.27778319   1.51538787   3.92318251
 H  -4.24928330   0.42376761   3.95974569
 H  -4.92411236   1.87122926   4.73452815
 O  -4.92343550   0.35177323   0.82414381
 C  -2.90130809   2.10621589   4.07005276
 C  -2.77571936   3.47955171   4.27269540
 H  -3.68164565   4.07355793   4.35729703
 C  -1.75074822   1.32967369   3.95808225
 H  -1.83858235   0.26021818   3.78899386
 C  -1.52040329   4.07376151   4.34360349
 H  -1.44190544   5.14343721   4.49679789
 C  -0.49368258   1.92502145   4.02311715
 H   0.39223330   1.30502087   3.92085551
 C  -0.37064269   3.29671881   4.21178597
 H   0.60829623   3.75622194   4.26313627
 N  -3.13117144   1.71288906   1.04068632
 H  -2.71479556   2.50179988   1.51603437
 C  -2.36737959   1.08681517  -0.02538654
 H  -2.50974817   0.00631476   0.05182031
 C  -0.91903259   1.47185131   0.21608233
 C  -2.83987858   1.55781957  -1.40116209
 H  -2.80494195   2.64893904  -1.41261108
 H  -3.88624976   1.26648473  -1.49682724
 O  -0.58221502   2.64444899   0.26462751
 C  -2.03756959   1.03299315  -2.59623409
 H  -1.02208364   1.43622853  -2.52645044
 C  -1.95384384  -0.49059482  -2.62210499
 H  -2.95404132  -0.93163308  -2.57486091
 H  -1.35686608  -0.88946814  -1.80250219
 H  -1.47898434  -0.82355241  -3.54968680
 C  -2.67103358   1.55523190  -3.88561800
 H  -3.67972432   1.15205311  -4.00025053
 H  -2.08267733   1.25853292  -4.75652707
 H  -2.73562605   2.64538937  -3.87718213
 N  -0.04448424   0.44856551   0.41207034
 H  -0.32938688  -0.47744826   0.13882098
 C   1.39182476   0.70112718   0.42500381
 H   1.54864818   1.62519646   0.98472727
 C   1.87231949   0.89095016  -1.00750097
 C   2.10737537  -0.46930263   1.09819877
 H   1.91241084  -1.38222025   0.53846207
 H   1.65402568  -0.59766184   2.08189251
 O   1.49987374   0.15758087  -1.91663345
 C   3.61272074  -0.27816900   1.24864435
 H   4.08353868  -0.15784541   0.27044766
 H   3.85460685   0.60989905   1.83807641
 C   4.27499699  -1.46998513   1.88272378
 O   3.82677743  -2.58656967   1.91812003
 O   5.48735134  -1.15555979   2.39274400
 N   2.73445863   1.92558592  -1.21257049
 H   3.24760708   2.24278498  -0.40832989
 C   3.44165496   1.96846448  -2.48525590
 H   2.69433659   1.80302445  -3.25948341
 C   4.48338306   0.85046959  -2.54849622
 C   4.07896879   3.33821929  -2.70552487
 H   3.30815350   4.09467540  -2.55437333
 H   4.87654560   3.52548001  -1.98458936
 O   5.12431636   0.50649087  -1.56287051
 C   4.57353815   3.48593943  -4.13492661
 N   5.62690045   4.32192452  -4.32584520
 H   5.89942875   4.49086789  -5.27646752
 H   5.96289120   4.91552694  -3.59353298
 O   4.04429696   2.88519367  -5.05970230
 N   4.64795910   0.28835491  -3.77130244
 H   4.32816465   0.82304242  -4.57565237
 C   5.69031272  -0.68649204  -4.00766802
 H   5.93936704  -1.12367809  -3.04080360
 C   6.91331031   0.03589346  -4.57723440
 C   5.22352341  -1.76394172  -4.99908677
 H   4.86850674  -1.24186720  -5.88875570
 H   6.08510122  -2.36430240  -5.30703551
 O   6.81143688   0.78475460  -5.54291834
 C   4.15981338  -2.67737806  -4.44155784
 C   4.46998078  -3.98758418  -4.06836307
 H   5.48192038  -4.35095728  -4.19308720
 C   2.84119169  -2.24770119  -4.26696945
 H   2.57340402  -1.23151172  -4.52801361
 C   3.50762057  -4.84196768  -3.53959880
 H   3.75716373  -5.85654946  -3.25493910
 C   1.86866569  -3.09094911  -3.73608163
 H   0.86166645  -2.71623349  -3.59126183
 O   1.29023320  -5.26615330  -2.84961842
 H   0.43733999  -4.82822281  -2.79380778
 C   2.20077131  -4.39203258  -3.37351596
 N   8.09428391  -0.23384207  -3.96570876
 H   8.23297921  -1.08768510  -3.43195382
 C   9.34219102   0.19414384  -4.53488020
 H   9.23232203   0.35486729  -5.61704221
 C   10.34827567  -0.96680671  -4.26492005
 C   9.92376459   1.45737248  -3.89885103
 H   9.94512643   1.33691703  -2.81092253
 H   10.95838522   1.52809685  -4.24490832
 O   11.46825960  -0.85782818  -4.76889060
 C   9.13482558   2.70202294  -4.26791591
 H   9.21735673   2.88254618  -5.34224101
 H   8.07637267   2.52483727  -4.07526388
 C   9.57811301   3.94501623  -3.51982404
 H   8.90244112   4.76947179  -3.76646977
 H   9.51171487   3.77657934  -2.43868014
 N   10.95331600   4.30915653  -3.91348940
 H   11.54086368   3.51703378  -4.13532951
 N   10.96495388   6.20408776  -2.54072516
 H   11.37568315   7.10739967  -2.36797674
 H   9.96024376   6.16501634  -2.50468432
 N   12.93268816   5.47302465  -3.58704636
 H   13.35182712   6.36079775  -3.35690650
 H   13.29933982   5.04513063  -4.42700894
 C   11.60291738   5.34133696  -3.35592511
 O   9.89830476  -1.89725654  -3.55799858
 H   5.84717279  -1.97773691   2.75256355
