21
conf-535
 N  -7.76583965  -3.97651458   8.81730421
 H  -8.28231655  -4.73754446   8.37207949
 H  -6.76854481  -4.20300297   8.79412256
 H  -8.05966474  -3.91253715   9.79269264
 C  -7.96165945  -2.69559974   8.10147843
 H  -9.03237839  -2.54208889   7.92495893
 C  -7.24981889  -2.80378121   6.75810808
 C  -7.43083704  -1.49666924   8.90687101
 H  -6.39762267  -1.73932679   9.16780768
 O  -6.11925786  -3.26709708   6.66989320
 C  -7.43172390  -0.19883590   8.09547458
 H  -8.45194766   0.05784480   7.78729414
 H  -7.05655254   0.62079544   8.71285401
 H  -6.81056470  -0.24851398   7.19918762
 C  -8.23353158  -1.28018589   10.18751767
 H  -9.26908483  -1.03737198   9.93759121
 H  -8.24157801  -2.14822788   10.84757916
 H  -7.81574232  -0.44433910   10.75232201
 N  -7.95070403  -2.37769764   5.67498873
 H  -8.73330738  -1.76273815   5.83117395
 C  -7.28479334  -2.27384724   4.38610475
 H  -6.69183796  -3.18323895   4.29169512
 C  -6.35326239  -1.06316454   4.36864332
 C  -8.30026276  -2.23085354   3.22683577
 H  -8.87188128  -3.15956447   3.32451126
 O  -6.74025896   0.06457446   4.70541172
 C  -7.61031645  -2.23490110   1.85813185
 H  -6.97674930  -1.34386898   1.78159904
 H  -8.38985888  -2.11706372   1.10052731
 C  -9.26149274  -1.05015253   3.30780726
 H  -8.74054122  -0.12581985   3.05685622
 H  -9.68956757  -0.92846390   4.30294936
 H  -10.07666413  -1.18909679   2.59559982
 C  -6.81865956  -3.49711542   1.54756866
 H  -6.40216545  -3.45516471   0.53892032
 H  -5.97810752  -3.63815574   2.23380080
 H  -7.45430243  -4.38400852   1.61103271
 N  -5.09206720  -1.33738323   3.94786872
 H  -4.86936370  -2.27227775   3.65188113
 C  -4.11966862  -0.31701757   3.63881350
 H  -4.58134175   0.63946644   3.87751632
 C  -3.75029529  -0.39172197   2.15775755
 C  -2.83994051  -0.51355044   4.47331381
 H  -3.09278064  -0.42960927   5.53241859
 H  -2.14265375   0.29206024   4.21611110
 O  -3.90484625  -1.41041781   1.50629984
 C  -2.20722886  -1.84213749   4.17140739
 C  -2.54812480  -2.99663379   4.87429655
 H  -3.29129124  -2.94369008   5.66475837
 C  -1.29164097  -1.95114042   3.12419785
 H  -1.02173345  -1.05836961   2.57161124
 C  -1.95291951  -4.22194840   4.56573644
 H  -2.22474142  -5.10220861   5.13565064
 C  -0.70068889  -3.16823677   2.80683473
 H   0.02622961  -3.21211554   1.99967620
 C  -1.02062407  -4.31319182   3.53445161
 H  -0.55750340  -5.26185891   3.29325315
 N  -3.17177624   0.73577318   1.65548150
 H  -2.89185289   1.44679366   2.31087029
 C  -2.28121012   0.64302650   0.51752172
 H  -2.28998075  -0.39348123   0.17702493
 C  -0.87619523   0.99839696   1.03430491
 C  -2.71307256   1.55199023  -0.62215852
 H  -1.97658518   1.48888003  -1.42788293
 H  -2.70147661   2.58462005  -0.26501732
 O  -0.73332956   1.66159084   2.05526897
 C  -4.09694107   1.22889150  -1.19638259
 H  -4.81981766   1.23429036  -0.37657969
 C  -4.49855384   2.31416249  -2.19113581
 H  -3.78600339   2.35154225  -3.01943906
 H  -4.51791646   3.29666879  -1.71406980
 H  -5.49071456   2.12211779  -2.60663600
 C  -4.12688897  -0.14239430  -1.86159648
 H  -3.41094776  -0.17253656  -2.68892669
 H  -5.11896140  -0.34779200  -2.27241431
 H  -3.87736101  -0.94431262  -1.16629186
 N   0.14840652   0.51997723   0.28923224
 H  -0.01791616   0.09488449  -0.61058637
 C   1.54343077   0.81406870   0.53975662
 H   1.62841449   1.81383270   0.97612011
 C   2.22042735   0.77677343  -0.83143651
 C   2.20623053  -0.20704332   1.48135266
 H   3.28626628  -0.15734488   1.35431164
 H   1.89069267  -1.20540361   1.17354198
 O   1.71229936   0.20577714  -1.78140591
 C   1.86157467   0.03933543   2.94768943
 H   2.23272737   1.02414901   3.25042525
 H   0.79004947   0.04131848   3.12662955
 C   2.48039853  -0.96331055   3.87840133
 O   1.92295759  -1.52510580   4.78701717
 O   3.79291966  -1.14949913   3.60965119
 N   3.42258915   1.40221459  -0.91695523
 H   3.91491720   1.67419898  -0.07592737
 C   4.27929761   1.12685353  -2.04913341
 H   3.62780981   1.04067891  -2.91966734
 C   4.99825458  -0.22187011  -1.86425983
 C   5.26715515   2.27333029  -2.28910368
 H   5.83643068   2.09772516  -3.20352686
 H   4.68739394   3.18566151  -2.43269313
 O   5.04281756  -0.82814181  -0.80445824
 C   6.20565656   2.52058698  -1.11638213
 N   7.46291311   2.90388702  -1.44705082
 H   8.10313408   3.10694281  -0.69937205
 H   7.75054986   3.02498782  -2.39930761
 O   5.83578474   2.41844086   0.04329199
 N   5.61754460  -0.68656556  -2.97323839
 H   5.53030748  -0.23976622  -3.87318527
 C   6.29864194  -1.96122833  -2.94863415
 H   6.88385202  -2.01842516  -2.02621025
 C   7.20354677  -1.99442502  -4.17924311
 C   5.30592904  -3.14134401  -2.96342687
 H   4.53341177  -2.92118362  -2.22427107
 H   4.82948757  -3.19464068  -3.94339658
 O   6.88698031  -1.41594172  -5.20694029
 C   6.01155510  -4.41819711  -2.61085316
 C   6.42371632  -5.32763903  -3.58267054
 H   6.21421747  -5.12060947  -4.62800501
 C   6.34317840  -4.66745125  -1.28164082
 H   6.04158736  -3.94348161  -0.52991416
 C   7.14896524  -6.46759771  -3.23849271
 H   7.48647089  -7.16812167  -3.99126024
 C   7.05289209  -5.80832896  -0.91917596
 H   7.29720148  -5.98719185   0.12257576
 O   8.16816722  -7.84072909  -1.62232972
 H   8.30951068  -7.89793364  -0.67378437
 C   7.45889346  -6.70882686  -1.90394429
 N   8.32815735  -2.73349256  -4.06502847
 H   8.51189901  -3.38205341  -3.30713589
 C   9.18148869  -3.00326402  -5.19108753
 H   8.58337021  -3.34518306  -6.05093455
 C   10.10309807  -4.15691479  -4.71201093
 C   10.00421058  -1.78118785  -5.62255803
 H   9.34055324  -0.92083540  -5.55310868
 H   10.81498691  -1.62606630  -4.90403513
 O   10.95147740  -4.56515458  -5.51533217
 C   10.53425018  -1.93207167  -7.04153992
 H   11.09882062  -2.86192286  -7.13762698
 H   9.68156927  -2.00187440  -7.71859965
 C   11.41168857  -0.76873802  -7.48190838
 H   12.31600468  -0.72988696  -6.87045051
 H   11.74580040  -0.90781395  -8.51431582
 N   10.78705108   0.56210156  -7.35306280
 H   10.85012251   0.97418046  -6.43315910
 N   9.28379927   0.17548775  -9.09274215
 H   8.65955441   0.57817737  -9.77321960
 H   9.91203989  -0.52786307  -9.44565818
 N   9.03726895   2.05191852  -7.70517115
 H   8.39782629   2.44614940  -8.37934168
 H   9.53104463   2.73198011  -7.14258053
 C   9.71679761   0.93450370  -8.06621795
 O   9.89944632  -4.57524727  -3.54618288
 H   4.11349425  -1.78130592   4.26490251
