21
conf-797
 N  -11.25255255   3.97758092   4.69057197
 H  -11.89521513   3.98871564   3.89666748
 H  -11.41812493   3.12126267   5.22464935
 H  -11.46523921   4.77461731   5.29114782
 C  -9.84334333   3.98824269   4.24477166
 H  -9.70005448   4.80004325   3.52189094
 C  -9.55025596   2.66263874   3.55066690
 C  -8.86847074   4.21649316   5.41790151
 H  -9.15725062   3.49872397   6.19027838
 O  -10.00586008   1.60550450   3.96711113
 C  -7.40810229   3.95006375   5.04769506
 H  -7.09179133   4.59368461   4.21735230
 H  -6.76463933   4.17182983   5.90213744
 H  -7.22708094   2.90876998   4.76483255
 C  -8.99342026   5.63400449   5.97115366
 H  -8.67159661   6.35315838   5.21434000
 H  -10.00950375   5.89426011   6.26961385
 H  -8.35252292   5.75265902   6.84716273
 N  -8.73473627   2.74596580   2.45987038
 H  -8.29071783   3.63233200   2.26736998
 C  -7.98380114   1.58060985   1.99321403
 H  -8.26796370   0.73220310   2.61813921
 C  -6.51353490   1.91184947   2.19341326
 C  -8.29623565   1.25230578   0.52594170
 H  -8.21294736   2.19064975  -0.02945843
 O  -6.00926150   2.89095970   1.64927232
 C  -9.73605143   0.74216919   0.42400882
 H  -10.37606529   1.34411098   1.07056119
 H  -9.75631902  -0.27072520   0.84129510
 C  -7.30331481   0.24107608  -0.04840239
 H  -7.27295844  -0.66008925   0.57532253
 H  -6.29781593   0.66208491  -0.08887474
 H  -7.58741439  -0.06071607  -1.05773910
 C  -10.28805456   0.74066556  -0.99390567
 H  -11.30536824   0.34599767  -1.01494101
 H  -10.31327980   1.75735907  -1.39632472
 H  -9.68100915   0.13517000  -1.66895882
 N  -5.82679493   1.11473571   3.04797476
 H  -6.17078793   0.18596237   3.22787554
 C  -4.40476350   1.33308490   3.22028457
 H  -4.26548671   2.41518656   3.26523233
 C  -3.63752150   0.77388380   2.01943312
 C  -3.89972273   0.69382800   4.52033254
 H  -4.51114103   1.07562478   5.34302079
 H  -2.87183065   1.03076501   4.69004314
 O  -4.00746513  -0.20948307   1.40263657
 C  -3.95712065  -0.81019185   4.47162059
 C  -5.08624969  -1.49768568   4.90913051
 H  -5.92502679  -0.94003046   5.31495909
 C  -2.88483723  -1.54345000   3.96588639
 H  -2.00267007  -1.01637895   3.61568323
 C  -5.15538297  -2.88758684   4.83619548
 H  -6.04749103  -3.39754497   5.17827361
 C  -2.94607929  -2.93128323   3.88508365
 H  -2.10022981  -3.47872293   3.48589604
 C  -4.08139951  -3.61106582   4.32121414
 H  -4.12789027  -4.69165751   4.26034209
 N  -2.48401607   1.43554748   1.73644173
 H  -2.13368762   2.13999883   2.36185350
 C  -1.56032712   0.98047131   0.72014788
 H  -1.84037770  -0.03630411   0.44326639
 C  -0.15678164   0.98328624   1.31218081
 C  -1.57330976   1.88106694  -0.52477395
 H  -0.76879116   1.57575130  -1.20084165
 H  -1.33100384   2.89459908  -0.19720414
 O   0.22460179   1.85406982   2.07388522
 C  -2.89472681   1.90339586  -1.29779135
 H  -3.69982695   2.17280672  -0.60774495
 C  -2.81560434   2.96948702  -2.38573430
 H  -1.98889525   2.74618140  -3.06578501
 H  -2.64408359   3.95710118  -1.95204480
 H  -3.73815544   3.01145538  -2.96891459
 C  -3.20302878   0.53565413  -1.90103860
 H  -2.39210311   0.23691927  -2.57357966
 H  -4.13059624   0.57191258  -2.47744042
 H  -3.31937887  -0.23008031  -1.13300758
 N   0.65573174  -0.03386882   0.86784448
 H   0.23986753  -0.60072217   0.14704779
 C   2.06972301   0.25901809   0.64480184
 H   2.35889437   0.92542785   1.45302782
 C   2.26964452   1.00621274  -0.69524399
 C   2.92899596  -1.00187164   0.68438183
 H   2.74415457  -1.51191533   1.62705382
 H   3.97994904  -0.70709946   0.68024317
 O   1.56235193   0.84056476  -1.72324300
 C   2.66401256  -1.92782885  -0.49316227
 H   1.64667296  -2.31690729  -0.48461706
 H   2.76320156  -1.35129955  -1.42290548
 C   3.63320605  -3.07098209  -0.55831187
 O   4.78460570  -3.03360170  -0.20195332
 O   3.10378449  -4.16540750  -1.14461391
 N   3.35262277   1.84472141  -0.65656926
 H   3.98345070   1.75143471   0.11876690
 C   3.84605811   2.47408693  -1.87225503
 H   2.99979857   2.50112979  -2.55948434
 C   4.95688836   1.59815621  -2.45937722
 C   4.30132484   3.89071801  -1.60857614
 H   3.52202061   4.37872188  -1.02255897
 H   5.22900063   3.91605757  -1.03491727
 O   6.14183271   1.89421878  -2.37680359
 C   4.46037715   4.68135289  -2.89309943
 N   5.14932713   5.84681413  -2.79243117
 H   5.10266189   6.47907383  -3.57230948
 H   5.43201237   6.20225079  -1.89850221
 O   3.98408615   4.30233344  -3.95442288
 N   4.52805338   0.42206923  -2.99161272
 H   3.53846081   0.32940489  -3.18092400
 C   5.43785204  -0.44954667  -3.71888881
 H   6.39005552  -0.44318226  -3.18399528
 C   5.62664088   0.08490868  -5.13528725
 C   4.86429292  -1.86759024  -3.80185460
 H   4.62150541  -2.19075594  -2.78911574
 H   3.93992110  -1.81559399  -4.38081048
 O   4.66044513   0.33726949  -5.85368395
 C   5.84593453  -2.81632047  -4.42673405
 C   5.97507838  -2.88422281  -5.81754302
 H   5.31559443  -2.27969745  -6.43506928
 C   6.70314047  -3.58848529  -3.64352646
 H   6.61328763  -3.56808018  -2.56505374
 C   6.94658280  -3.68414389  -6.41570164
 H   7.05805385  -3.73260242  -7.49173897
 C   7.68311620  -4.38728388  -4.23078348
 H   8.34401366  -4.97539835  -3.60277409
 O   8.75505759  -5.17701410  -6.25344068
 H   9.28111376  -5.64710451  -5.60115219
 C   7.80969161  -4.42709640  -5.61541959
 N   6.91792070   0.24850881  -5.51974605
 H   7.66279564  -0.35475476  -5.19108341
 C   7.21721869   0.74810015  -6.83026753
 H   6.36589220   0.54612792  -7.49670521
 C   8.46916244  -0.05251584  -7.29949540
 C   7.53019779   2.25468660  -6.87097167
 H   8.54907003   2.43162156  -6.51582421
 H   7.49897348   2.54628974  -7.92128078
 O   8.89714798   0.20760327  -8.42533609
 C   6.54247738   3.05579981  -6.02603999
 H   5.52985008   2.71499159  -6.22437773
 H   6.74237423   2.85954249  -4.97224629
 C   6.61837217   4.56613645  -6.21973183
 H   6.10820610   5.05852069  -5.39392998
 H   7.65642660   4.90020427  -6.18585688
 N   6.06803157   5.05627080  -7.49327811
 H   6.67138666   4.95001310  -8.29356552
 N   3.82976446   4.92283783  -6.82805550
 H   2.86283084   4.82179767  -7.09550813
 H   4.05304072   4.62563022  -5.88779709
 N   4.38456202   5.36176704  -9.05704088
 H   3.44870126   5.72569812  -9.18113640
 H   5.07393647   5.83879785  -9.62648970
 C   4.75461642   5.11406004  -7.76793995
 O   8.91124565  -0.88832610  -6.46873586
 H   3.80618947  -4.82917655  -1.15867089
