21
conf-584
 N   0.02977741  -1.69493968   3.05528036
 H   0.51872794  -0.83255805   2.79067582
 H   0.01625790  -1.77550707   4.07122525
 H   0.56747247  -2.47354721   2.66698609
 C  -1.33787629  -1.73536068   2.47612405
 H  -1.92551300  -0.91187633   2.89926949
 C  -1.14524140  -1.53353114   0.98159746
 C  -2.03017812  -3.05839792   2.77312140
 H  -2.04177264  -3.17906646   3.85761237
 H  -1.41458580  -3.85976400   2.36119844
 O  -0.71994960  -2.44061089   0.27775511
 C  -3.44365431  -3.13739515   2.20928779
 H  -3.42763407  -3.08555989   1.12177948
 H  -4.05558135  -2.31707997   2.58341455
 C  -4.10268165  -4.42618053   2.58615280
 O  -4.30832275  -5.39064283   1.92986906
 O  -4.53732824  -4.43255180   3.97596139
 N  -1.40373451  -0.27300765   0.51709621
 H  -1.58073988   0.41410352   1.22910184
 C  -0.64289243   0.28788261  -0.59800641
 H  -1.08319040   1.27457314  -0.77075840
 C   0.82260321   0.52218847  -0.16323738
 C  -0.78242378  -0.52029385  -1.90026748
 H  -0.27123743  -1.47189490  -1.80048587
 H  -1.84562884  -0.72359077  -2.02219640
 O   1.26395031   0.12032858   0.91083103
 C  -0.25665809   0.22241734  -3.08623109
 C  -0.84513550   1.43582572  -3.47065113
 H  -1.76528984   1.74352994  -2.97515850
 C   0.89178204  -0.21479489  -3.76048462
 H   1.34047307  -1.16531828  -3.47720989
 C  -0.26389409   2.25632889  -4.39502613
 H  -0.68815434   3.21687865  -4.65614499
 C   1.50038861   0.55926503  -4.70482033
 H   2.40402526   0.24413063  -5.21280184
 O   1.55762914   2.61874299  -5.84132861
 C   0.98387357   1.87702689  -5.03659269
 N   1.58534669   1.22008523  -1.04249891
 H   1.16011842   1.65787008  -1.85060165
 C   2.96934119   1.50549392  -0.79338367
 H   3.36677442   0.76590476  -0.10112962
 C   3.16556127   2.92663512  -0.17116232
 C   3.76280337   1.51900407  -2.10469193
 H   3.61362517   0.54813449  -2.59015570
 H   3.31124884   2.26280230  -2.76555204
 O   4.05964033   2.97313679   0.69801613
 C   5.26654936   1.80944325  -1.92316297
 H   5.83885299   0.97527199  -2.34095693
 H   5.52104917   1.83906494  -0.86135186
 C   5.73904397   3.09509072  -2.61384086
 H   6.82726495   3.17489119  -2.52047032
 H   5.53748255   3.00667582  -3.68746126
 C   5.11620363   4.41057552  -2.15146678
 H   5.46299192   5.20601406  -2.81751131
 H   4.03430705   4.36555334  -2.26731325
 N   5.43586287   4.78126127  -0.75289672
 H   5.05349327   5.70699967  -0.54284046
 H   6.45038469   4.83461585  -0.62324589
 H   5.03962894   4.12586519  -0.04338946
 O   2.47218631   3.85188283  -0.61252412
 H  -3.89954506  -4.17087136   4.68270636
 H  -4.87476325  -5.33174190   4.17123781
