21
conf-34
 N  -2.87903396  -1.03073633   2.98137947
 H  -3.22183155  -1.47177054   2.11755690
 H  -3.19617033  -1.57839033   3.78056557
 H  -3.29211666  -0.09673812   3.03739323
 C  -1.40463946  -0.90738529   2.94750951
 H  -0.99078752  -1.85948373   2.59195110
 C  -1.05514921   0.15127354   1.90217526
 C  -0.79573040  -0.60017861   4.31061055
 H   0.25596810  -0.33860499   4.17621319
 H  -0.80765448  -1.52136691   4.89518685
 O  -1.42600317   1.31406643   2.00856171
 C  -1.50493684   0.49566485   5.10141758
 H  -2.54372454   0.21846633   5.29585155
 H  -1.53028927   1.43621933   4.55279737
 C  -0.86108418   0.75873260   6.42935272
 O   0.07860292   0.24133705   6.92988751
 O  -1.51667313   1.84837895   7.18289800
 N  -0.34256306  -0.30205140   0.84221626
 H  -0.15480723  -1.28569580   0.77978221
 C  -0.37309350   0.44876342  -0.40193166
 H  -0.91305883   1.36303203  -0.15291276
 C   1.05870765   0.81256973  -0.79135753
 C  -1.10835445  -0.31225299  -1.51453241
 H  -1.21571347   0.35320974  -2.37235019
 H  -0.47932731  -1.14193984  -1.83664104
 O   1.59471908   0.42864967  -1.82193768
 C  -2.43680056  -0.81319781  -1.04399726
 C  -2.54593379  -2.08853799  -0.47735356
 H  -1.66243249  -2.72173492  -0.42958165
 C  -3.57898846  -0.00134518  -1.08088058
 H  -3.50950210   0.99001440  -1.52000052
 C  -3.72882104  -2.56089781   0.03605195
 H  -3.80444892  -3.53251077   0.51217764
 C  -4.78648063  -0.42130749  -0.56864518
 H  -5.66399297   0.21109267  -0.59471975
 O  -5.99215067  -2.12550303   0.51878314
 C  -4.92506625  -1.73140040   0.03823666
 N   1.69305088   1.59854751   0.12309683
 H   1.36853339   1.64262731   1.08350772
 C   3.11294012   1.77240953   0.07593560
 H   3.57062480   0.97158037  -0.52249823
 C   3.61050694   1.68127913   1.55540934
 C   3.56371663   3.12098160  -0.48405814
 H   3.09451178   3.93371386   0.07952109
 H   4.64288500   3.18761834  -0.31516166
 O   4.83026952   1.68841022   1.72876172
 C   3.26162001   3.27475047  -1.96718157
 H   2.18647988   3.27661135  -2.13229561
 H   3.65494938   2.40379676  -2.50217024
 C   3.86206049   4.54229482  -2.54649188
 H   3.45749547   5.41078695  -2.01986561
 H   4.94384938   4.54507403  -2.38672526
 C   3.58056888   4.69201926  -4.02486214
 H   3.99569902   3.83308542  -4.55732147
 H   2.49986523   4.67808462  -4.18471168
 N   4.14760545   5.94380736  -4.58586479
 H   3.95362651   6.04537580  -5.58261714
 H   5.15955695   5.97206676  -4.46541529
 H   3.76299233   6.76101705  -4.11313091
 O   2.69849481   1.60620236   2.41623121
 H  -2.49273985   1.80063123   7.30589293
 H  -1.08037922   1.87511534   8.06139606
