21
conf-966
 N  -0.38254657  -3.42485182   3.40027772
 H   0.58121549  -3.16692471   3.61491719
 H  -0.79842860  -3.85300040   4.22537100
 H  -0.34438403  -4.11780698   2.65227577
 C  -1.14065462  -2.24237184   2.94811581
 H  -1.10847708  -1.48209381   3.73691426
 C  -0.44652218  -1.66491528   1.70795234
 C  -2.59937767  -2.57122629   2.65297996
 H  -2.63586970  -3.35580831   1.89877718
 H  -3.07418462  -1.69727856   2.20757963
 O   0.38692833  -2.29475119   1.08747358
 C  -3.38478410  -2.98921848   3.88838098
 H  -3.27012573  -2.26500035   4.69290788
 H  -3.06386949  -3.96934503   4.25880094
 C  -4.84136724  -3.06184231   3.57679055
 O  -5.73756948  -2.39909644   3.97783061
 O  -5.13513116  -4.07375626   2.56617359
 N  -0.83017296  -0.40719201   1.36325736
 H  -1.54737032   0.05561892   1.89646123
 C  -0.26544366   0.28479444   0.21382441
 H  -0.66411147   1.30402334   0.27530903
 C   1.26021259   0.37987245   0.33126076
 C  -0.68989103  -0.31790577  -1.13800765
 H  -0.17248622  -1.26097397  -1.28460260
 H  -1.75781423  -0.53261971  -1.08138981
 O   2.04094765  -0.06945424  -0.49121499
 C  -0.42220490   0.62650052  -2.25999554
 C  -1.13520635   1.83330735  -2.34260744
 H  -1.89643082   2.03720043  -1.59493784
 C   0.56423912   0.35821527  -3.22273945
 H   1.13655489  -0.56333613  -3.13967269
 C  -0.90536866   2.74370830  -3.34023125
 H  -1.45520436   3.67393171  -3.40936141
 C   0.83751179   1.23281105  -4.24347399
 H   1.58951474   1.02334027  -4.99264021
 O   0.33518597   3.29611094  -5.26448659
 C   0.11404479   2.49165864  -4.35213600
 N   1.70120916   1.02872758   1.43674681
 H   1.13848512   1.31888267   2.22766962
 C   3.08767707   1.33873489   1.61742576
 H   3.69976703   0.42922552   1.57216692
 C   3.19531991   1.94821094   3.05940683
 C   3.67692086   2.32913440   0.60009429
 H   4.65259365   2.63986644   0.98601428
 H   3.85640292   1.78560349  -0.32813742
 O   4.33082586   2.20292121   3.46817390
 C   2.79344674   3.54339291   0.33374100
 H   2.55665433   4.03861167   1.28290131
 H   1.83840066   3.21376901  -0.08648110
 C   3.41412800   4.53878334  -0.63336234
 H   2.81664847   5.45410330  -0.63839890
 H   4.41920723   4.81535495  -0.29448524
 C   3.49713754   4.01349858  -2.05332751
 H   4.11851004   3.11466160  -2.07440786
 H   2.50067750   3.73532101  -2.40426470
 N   4.07840757   5.01621820  -2.98417482
 H   4.24625844   4.62925502  -3.91288066
 H   4.96625674   5.36811686  -2.63078513
 H   3.45118729   5.81210800  -3.09437551
 O   2.10146358   2.10100154   3.64943295
 H  -4.81783751  -4.98803679   2.73597633
 H  -6.10633400  -4.11014357   2.45302007
