21
conf-669
 N   0.27666215  -2.20300042   2.98997997
 H   0.76038973  -1.35034580   2.68325068
 H   0.29645905  -2.23484986   4.00687056
 H   0.79969743  -2.99489269   2.60983916
 C  -1.10749612  -2.24628662   2.45209053
 H  -1.69424962  -1.45497807   2.91955681
 C  -0.95704404  -1.97881034   0.95786155
 C  -1.79194548  -3.58568492   2.69324793
 H  -1.30259817  -4.34644816   2.08282522
 H  -2.82356526  -3.51089815   2.34502563
 O  -0.44027479  -2.80673902   0.22046934
 C  -1.79208527  -4.04908976   4.15113451
 H  -0.77109217  -4.17548323   4.52479561
 H  -2.26633588  -5.03320147   4.22140042
 C  -2.53096797  -3.15282911   5.09383754
 O  -3.23679063  -2.22575012   4.86783271
 O  -2.31647689  -3.51422979   6.50292045
 N  -1.33764823  -0.73242070   0.54831032
 H  -1.60166385  -0.11010483   1.29349282
 C  -0.61469728  -0.04118354  -0.52088412
 H  -1.14781463   0.90375944  -0.65850455
 C   0.81654781   0.30344449  -0.05684313
 C  -0.64638715  -0.79974021  -1.85780562
 H  -0.04450564  -1.69913713  -1.78340832
 H  -1.68094383  -1.10158982  -2.01659264
 O   1.31552144  -0.18053238   0.95647884
 C  -0.16896034   0.04571181  -2.99352280
 C  -0.87949760   1.19807503  -3.35838643
 H  -1.84038459   1.38488094  -2.87995490
 C   1.04295528  -0.23490371  -3.63879219
 H   1.58835148  -1.13685292  -3.36813546
 C  -0.37164266   2.10632132  -4.24403811
 H  -0.89514980   3.02033211  -4.49135804
 C   1.58315493   0.63108360  -4.54556335
 H   2.53105990   0.43674224  -5.03256542
 O   1.42758048   2.70854443  -5.63841968
 C   0.92583021   1.88712727  -4.86305128
 N   1.48070183   1.18792840  -0.84271232
 H   1.01369314   1.61372281  -1.63386390
 C   2.82560076   1.61002157  -0.57366117
 H   3.30479243   0.87771003   0.07268215
 C   2.80334260   3.00717741   0.14533632
 C   3.60021580   1.84189331  -1.85460438
 H   3.61540742   0.91538820  -2.43837595
 H   3.05572935   2.59609804  -2.43711669
 O   3.19535947   2.99520035   1.32261291
 C   5.00914576   2.33585808  -1.56117058
 H   5.58133440   1.52976640  -1.09133522
 H   4.94122303   3.14760836  -0.83002689
 C   5.71022994   2.80312026  -2.82409633
 H   5.65567132   2.01291108  -3.57928323
 H   5.16654074   3.66359165  -3.22973715
 C   7.16687477   3.17648291  -2.62438908
 H   7.72098461   2.29503097  -2.29233204
 H   7.60383941   3.49075847  -3.57364203
 N   7.33402545   4.25777545  -1.61867623
 H   8.26091929   4.68190169  -1.65651025
 H   7.19867365   3.90167522  -0.67379961
 H   6.64037996   4.98884710  -1.76508116
 O   2.37321158   3.95144783  -0.53698479
 H  -2.50673228  -4.44168760   6.77470254
 H  -2.88576410  -2.91910676   7.03644268
