21
conf-610
 N  -0.54734646  -3.27303788   3.22522311
 H   0.39266888  -3.05217627   3.55779712
 H  -1.06367657  -3.73890224   3.96858833
 H  -0.44887255  -3.91598562   2.43559598
 C  -1.25555231  -2.06882575   2.73936069
 H  -1.19042612  -1.28098081   3.49632185
 C  -0.58336669  -1.61221264   1.44769742
 C  -2.72592037  -2.38789994   2.47224931
 H  -3.13056405  -2.85663597   3.37377346
 H  -2.75191732  -3.13351348   1.67655108
 O  -0.11975285  -2.42564059   0.66166957
 C  -3.56976448  -1.18187009   2.08841369
 H  -3.32276473  -0.85170990   1.07578746
 H  -3.41272074  -0.34432322   2.76781605
 C  -5.03726714  -1.46197788   2.09787685
 O  -5.90735955  -0.87199764   2.64672006
 O  -5.39579061  -2.60658441   1.27450230
 N  -0.60008161  -0.27016925   1.23989274
 H  -0.97043597   0.31212263   1.96858748
 C  -0.08213932   0.42193580   0.06564772
 H  -0.48940138   1.43537615   0.12458733
 C   1.44356211   0.56012254   0.08810545
 C  -0.49448369  -0.19561438  -1.27504633
 H  -0.17731805  -1.23116483  -1.31365793
 H  -1.58534835  -0.18406733  -1.31821280
 O   2.19413469  -0.33610669  -0.27149269
 C   0.11098747   0.56270472  -2.41080020
 C  -0.24995000   1.89217495  -2.66735417
 H  -1.02179921   2.34763890  -2.05256908
 C   1.11979522  -0.01799384  -3.18699780
 H   1.43681408  -1.03554372  -2.96429057
 C   0.33690895   2.62661631  -3.67464362
 H   0.05135287   3.65076294  -3.87232616
 C   1.70224897   0.65740304  -4.22978664
 H   2.45600827   0.19961656  -4.85574030
 O   1.90864206   2.67342290  -5.43379587
 C   1.36832119   2.04146512  -4.51829374
 N   1.92229032   1.76709668   0.44746234
 H   1.40922167   2.51390234   0.89404511
 C   3.30540611   2.09010727   0.27035117
 H   3.93286434   1.30257671   0.70485044
 C   3.51393889   3.41794511   1.05628579
 C   3.68197387   2.29898995  -1.21037991
 H   3.14061427   1.57341727  -1.82234216
 H   3.32647925   3.28706047  -1.51981674
 O   4.67388085   3.83732732   1.15118624
 C   5.18739113   2.16957184  -1.45260553
 H   5.71568682   2.80392133  -0.73856988
 H   5.42860995   2.55947409  -2.44691208
 C   5.70775157   0.73991579  -1.32641539
 H   6.77896933   0.73500379  -1.54812068
 H   5.60779793   0.39833531  -0.28992382
 C   5.01307968  -0.26880851  -2.23999346
 H   5.54304740  -1.22332604  -2.20708158
 H   3.99796026  -0.45386117  -1.88663173
 N   4.93485977   0.21357937  -3.63841530
 H   4.65052231  -0.52360169  -4.27914637
 H   5.83511451   0.58306597  -3.94692497
 H   4.25176810   0.96787057  -3.70830551
 O   2.47181251   3.92974033   1.51145200
 H  -4.86217617  -3.42731064   1.39529624
 H  -6.33706722  -2.81283126   1.43763586
