21
conf-102
 N   0.80541371  -4.49780477   2.52798201
 H   1.79462059  -4.25272130   2.48998857
 H   0.63906792  -5.04721157   3.36866416
 H   0.61450031  -5.07971975   1.71240250
 C  -0.02536671  -3.27908388   2.48217532
 H   0.23739673  -2.64052204   3.33393574
 C   0.31292927  -2.52016207   1.19404902
 C  -1.51500688  -3.58768019   2.55547920
 H  -1.77419993  -4.27502822   1.75224423
 H  -2.06904641  -2.67113369   2.36654407
 O   0.98513621  -3.03636058   0.31580467
 C  -1.94676119  -4.16746503   3.89888247
 H  -1.65952380  -3.50547483   4.71885616
 H  -1.47892784  -5.13764064   4.09063553
 C  -3.42831379  -4.36629941   4.00235048
 O  -4.27381879  -4.19585617   3.19000745
 O  -3.85644454  -4.82589530   5.33823832
 N  -0.21182536  -1.26623556   1.11369504
 H  -0.64857205  -0.89136514   1.93754973
 C   0.01521259  -0.32305842   0.02498808
 H  -0.75994092   0.44136149   0.13100162
 C   1.36877009   0.37449188   0.17676372
 C  -0.10852826  -0.93196782  -1.37517236
 H   0.64000177  -1.70236912  -1.51873928
 H  -1.08760926  -1.40588092  -1.43542694
 O   2.41524376  -0.10971883  -0.22808135
 C   0.03697561   0.13828962  -2.40741599
 C  -0.98333064   1.07559149  -2.61422313
 H  -1.91824739   0.95310446  -2.07507522
 C   1.24081767   0.28660295  -3.10287152
 H   2.04809252  -0.41498706  -2.90580453
 C  -0.82276793   2.15011586  -3.46067699
 H  -1.60477986   2.87996163  -3.61568447
 C   1.44769052   1.32574421  -3.97995559
 H   2.38338727   1.45185601  -4.51313580
 O   0.62745222   3.33918984  -4.88401671
 C   0.43365999   2.34866141  -4.16240325
 N   1.32126455   1.60072867   0.75854817
 H   0.57673412   1.88848939   1.38663288
 C   2.52121307   2.31229355   1.07730602
 H   3.36586383   1.61564259   1.15482671
 C   2.25328668   3.00768077   2.44938427
 C   2.86924123   3.41824134   0.07803559
 H   2.02160787   4.10639293  -0.00613266
 H   3.70613007   3.97969773   0.50116348
 O   3.21659011   3.54066630   3.00179578
 C   3.23673855   2.87396540  -1.29258454
 H   2.36655028   2.37601158  -1.73438041
 H   4.00460417   2.10432240  -1.17062268
 C   3.74313905   3.94644617  -2.24825624
 H   4.57093971   4.48902929  -1.77721918
 H   4.14796913   3.47073923  -3.14767194
 C   2.68477050   4.94661310  -2.66350639
 H   1.88394067   4.44252162  -3.20018110
 H   2.25224136   5.41150898  -1.77344638
 N   3.24199712   6.01387062  -3.53083270
 H   2.52484446   6.67637537  -3.82590125
 H   3.66274112   5.61822231  -4.37044083
 H   3.96571703   6.53787691  -3.04101576
 O   1.06260042   2.94748199   2.83513174
 H  -3.41276726  -5.61925920   5.71566809
 H  -4.81930876  -4.99911464   5.26938123
