21
conf-727
 N  -6.16264814  -3.63575168  -3.16442398
 H  -6.26421473  -4.03633896  -4.09622771
 H  -7.07034468  -3.58343304  -2.70931642
 H  -5.55165595  -4.25159447  -2.62343983
 C  -5.48200883  -2.33029078  -3.21855351
 H  -5.77177857  -1.79276867  -4.12953442
 C  -3.97737745  -2.60647305  -3.25979860
 C  -5.81148417  -1.42342666  -2.00483611
 H  -5.15483187  -0.55432423  -2.10446039
 O  -3.52177347  -3.69264346  -2.93230640
 C  -5.46103068  -2.10410588  -0.67999686
 H  -4.49518570  -2.61601672  -0.79285165
 H  -6.20096093  -2.88399974  -0.47939718
 C  -7.25730991  -0.93953983  -2.04095749
 H  -7.96081887  -1.77171707  -1.96388478
 H  -7.46281058  -0.26357852  -1.21012031
 H  -7.47113001  -0.40418215  -2.96911970
 C  -5.38550087  -1.14828848   0.50366719
 H  -5.13525735  -1.68215192   1.42257746
 H  -4.61691427  -0.38867678   0.34618419
 H  -6.33068167  -0.63397810   0.67263825
 N  -3.18139824  -1.55957770  -3.63160924
 H  -3.61757988  -0.65943152  -3.72779656
 C  -1.81189277  -1.53024544  -3.15045396
 H  -1.50912682  -2.56954909  -3.02880223
 C  -1.76152127  -0.81548522  -1.79509333
 C  -0.86788409  -0.82869439  -4.13837893
 H  -0.97586181  -1.30859867  -5.11408067
 H   0.15912909  -1.00207598  -3.79724277
 O  -2.52927458   0.09377497  -1.52345876
 C  -1.13757809   0.64763940  -4.23498062
 C  -2.02233208   1.15703687  -5.18350066
 H  -2.50828129   0.47332514  -5.87350139
 C  -0.51943402   1.54285613  -3.36058349
 H   0.18372753   1.17058604  -2.63127903
 C  -2.29237263   2.52446250  -5.26075331
 H  -2.97854137   2.89413454  -6.01166539
 C  -0.81051956   2.89837047  -3.40796678
 H  -0.32128867   3.57474722  -2.71565490
 C  -1.68479296   3.40228703  -4.36450052
 H  -1.88196463   4.46694254  -4.40921104
 N  -0.76614054  -1.20940407  -0.95694611
 H  -0.07763626  -1.86252478  -1.28901588
 C  -0.37285909  -0.36305227   0.16695264
 H  -0.90833529   0.58148122   0.09038982
 C   1.11181558  -0.11894328   0.00266391
 C  -0.69027036  -0.98980663   1.52419034
 H  -0.19475200  -1.97097671   1.54361557
 O   1.91176662  -1.06018180   0.06614348
 C  -0.16763330  -0.12833365   2.67307928
 H  -0.66382437   0.84538275   2.65046716
 H  -0.39288476  -0.59973410   3.63290173
 H   0.91108651   0.03933278   2.61886403
 C  -2.18912666  -1.20980428   1.68247290
 H  -2.70686860  -0.24563657   1.64537903
 H  -2.60564227  -1.85053517   0.90359139
 H  -2.39741664  -1.67580910   2.64727676
 N   1.48972523   1.14542098  -0.28827549
 H   0.85379266   1.88025097  -0.03008375
 C   2.89834863   1.52897579  -0.27368906
 H   3.43881110   0.83106604  -0.91682927
 C   3.44665666   1.37681887   1.14542116
 C   3.03768091   2.95243296  -0.79723464
 H   2.31723821   3.58184119  -0.27981753
 H   4.02291998   3.35853110  -0.57080770
 O   2.78031761   1.63639915   2.13876123
 C   2.82180180   3.00424166  -2.30866263
 H   1.94209180   2.42631800  -2.60091955
 H   3.67251443   2.55097350  -2.82557377
 C   2.67393524   4.42027699  -2.83936150
 N   1.98926440   4.52340109  -4.01947814
 H   1.44253350   3.76248523  -4.38530696
 H   1.81723250   5.45190850  -4.36119248
 O   3.17379351   5.38898006  -2.29908462
 N   4.72129764   0.91690267   1.21806328
 H   5.40467850   1.03652442   0.47819258
 C   5.37490042   0.71444781   2.47747797
 H   4.92637681   1.35626665   3.24450773
 C   6.87337082   1.08354158   2.24773361
 C   5.33156877  -0.74535103   2.94211400
 H   5.85342635  -0.80601430   3.89922116
 H   5.88502908  -1.36429788   2.22813653
 O   7.58622454   1.16495951   3.24918466
 C   3.90677455  -1.26543561   3.04966615
 H   3.35371687  -0.66955612   3.78402851
 H   3.41121262  -1.11506482   2.09839624
 C   3.83322566  -2.73423470   3.42947314
 H   4.18726616  -2.86402690   4.45715130
 H   4.50306221  -3.31430668   2.78552719
 C   2.42473662  -3.30060825   3.31633767
 H   2.36231452  -4.26709488   3.82322909
 H   1.72810948  -2.62735882   3.83303122
 N   1.97761813  -3.44686766   1.90870295
 H   1.02878072  -3.81312499   1.84692849
 H   2.59461756  -4.08081869   1.39649989
 H   1.98172504  -2.55688439   1.40936159
 O   7.18408755   1.24080930   1.04499657
