21
conf-797
 N  -6.28421589  -3.37516815  -4.44668762
 H  -6.26369160  -3.04287395  -5.41199580
 H  -7.23781993  -3.60890334  -4.18348288
 H  -5.71056014  -4.22010516  -4.40045367
 C  -5.68631780  -2.38245849  -3.53125323
 H  -5.93251765  -1.38209340  -3.90132836
 C  -4.16996639  -2.56960827  -3.57588257
 C  -6.26717921  -2.52217552  -2.10576542
 H  -7.34731312  -2.38153540  -2.24358579
 O  -3.67018793  -3.64864007  -3.87281256
 C  -5.78668831  -1.45780777  -1.11971314
 H  -4.71208017  -1.57116492  -0.96435147
 H  -6.24589779  -1.68427819  -0.15226222
 C  -6.03558625  -3.90899526  -1.51293244
 H  -4.97937879  -4.05262092  -1.28393472
 H  -6.60349079  -4.02469947  -0.58804591
 H  -6.34332162  -4.69457114  -2.20188893
 C  -6.12635981  -0.02280065  -1.49000298
 H  -5.71517026   0.67152105  -0.75249695
 H  -5.71424166   0.26096380  -2.46284315
 H  -7.20874990   0.12908810  -1.53192841
 N  -3.43500703  -1.47790266  -3.25369462
 H  -3.87327583  -0.63536547  -2.92073851
 C  -2.00707738  -1.52702072  -3.06968682
 H  -1.73054039  -2.56819662  -2.89098351
 C  -1.67472038  -0.64332364  -1.86206481
 C  -1.25440546  -1.03387223  -4.31585836
 H  -0.18081563  -1.09229508  -4.11930123
 H  -1.50078843   0.01820732  -4.47711991
 O  -2.43295347   0.24238730  -1.48583865
 C  -1.61156978  -1.84362418  -5.53448911
 C  -0.89194408  -2.98884818  -5.87542803
 H  -0.03815134  -3.28252235  -5.27204262
 C  -2.69763864  -1.47821467  -6.33429856
 H  -3.27540234  -0.59856565  -6.06432088
 C  -1.25949190  -3.76336658  -6.97472898
 H  -0.68820365  -4.65240352  -7.21551753
 C  -3.06426121  -2.24544082  -7.43853237
 H  -3.91052583  -1.93974654  -8.04286917
 C  -2.34935181  -3.39410513  -7.75925382
 H  -2.63466907  -3.99224059  -8.61724478
 N  -0.48129367  -0.90392615  -1.28017074
 H   0.14122727  -1.58511332  -1.68696871
 C   0.08185028  -0.07920295  -0.22197369
 H  -0.42397659   0.89064965  -0.23903701
 C   1.56158100   0.09622689  -0.52428954
 C  -0.12080680  -0.71114377   1.17777470
 H   0.16478332  -1.76178315   1.08452899
 O   2.26457242  -0.85242952  -0.83849522
 C   0.77644800  -0.07898003   2.24253065
 H   0.65441075   1.00789294   2.27322522
 H   0.51592233  -0.47459371   3.23037959
 H   1.82752130  -0.30550119   2.05204067
 C  -1.58877582  -0.62435261   1.58158346
 H  -1.87296618   0.42140048   1.73074682
 H  -2.24464864  -1.04094640   0.81628569
 H  -1.76418085  -1.16387725   2.51328766
 N   2.03157701   1.36978471  -0.37940073
 H   1.38649896   2.02642290   0.03302784
 C   3.42548397   1.60352079  -0.05347383
 H   3.91648903   0.63290558  -0.05159666
 C   3.48874541   2.21517113   1.35778774
 C   4.13394284   2.50011683  -1.06358242
 H   5.18814694   2.57197291  -0.77624725
 H   4.09986520   2.01675257  -2.04075420
 O   2.49447958   2.75057450   1.86636558
 C   3.53951154   3.90123097  -1.12025334
 H   3.41671760   4.28486928  -0.10269155
 H   2.54786530   3.89319087  -1.57167799
 C   4.44174948   4.87037242  -1.87643138
 N   3.82392516   6.00537663  -2.31299978
 H   2.84965085   6.18303216  -2.15501956
 H   4.38300837   6.68800959  -2.79297723
 O   5.63108927   4.67522913  -2.04848109
 N   4.71896481   2.13057883   1.93325306
 H   5.55374980   2.01248531   1.37005364
 C   5.06098884   2.71347486   3.20037023
 H   4.49439666   3.63942500   3.38015238
 C   6.57779517   3.05309300   3.07768038
 C   4.87472398   1.76537225   4.38917404
 H   5.43212560   2.17860553   5.23566463
 H   5.32715678   0.80058861   4.13974130
 O   7.10679576   2.68833510   2.00104548
 C   3.41696261   1.56370915   4.76946376
 H   3.00352791   2.51776652   5.11373545
 H   2.83555896   1.28551668   3.88771197
 C   3.22363506   0.51327432   5.84803558
 H   3.74850401   0.81354469   6.75830216
 H   3.66745383  -0.43144886   5.52054766
 C   1.76538722   0.27724701   6.16885257
 H   1.31302833   1.21364185   6.50246146
 H   1.24384469  -0.03201913   5.25752986
 N   1.57226475  -0.76989651   7.19989178
 H   0.58593012  -0.94375339   7.39421091
 H   2.01841162  -0.50578570   8.07764730
 H   1.98662942  -1.65186687   6.90163952
 O   7.09957394   3.64175283   4.02525094
