21
conf-95
 N  -4.80634624   0.65867757  -6.05734755
 H  -4.26596119   1.12758777  -6.78493032
 H  -5.77524613   0.96645001  -6.08967417
 H  -4.76965695  -0.34749139  -6.24253840
 C  -4.20932793   0.85599213  -4.72142865
 H  -3.70998657   1.83294279  -4.68735408
 C  -3.16756337  -0.25031949  -4.53738255
 C  -5.29028570   0.83623069  -3.61596230
 H  -6.03073148   1.57301890  -3.95570101
 O  -3.20085519  -1.27632080  -5.20379102
 C  -4.77778547   1.31786250  -2.25643794
 H  -4.07951543   2.14991760  -2.40949331
 H  -4.20455878   0.51818885  -1.77715419
 C  -5.96437544  -0.52779235  -3.51688181
 H  -5.24085220  -1.28364916  -3.20620336
 H  -6.77706695  -0.51893527  -2.78856542
 H  -6.37500847  -0.83244611  -4.48145283
 C  -5.89160201   1.77682135  -1.32545035
 H  -5.49406197   2.09346514  -0.35984282
 H  -6.43545174   2.62079419  -1.75736972
 H  -6.61427167   0.97998761  -1.14235186
 N  -2.25577137  -0.04399848  -3.56731679
 H  -2.24825676   0.77705338  -2.98411458
 C  -1.27675258  -1.04318920  -3.21140323
 H  -1.75420801  -2.02765509  -3.21349941
 C  -0.81641270  -0.67721389  -1.80406469
 C  -0.11123928  -1.09541328  -4.21871062
 H   0.39316136  -0.12779023  -4.24229919
 H  -0.55709562  -1.27023710  -5.19794519
 O  -0.97161907   0.45888177  -1.36765348
 C   0.84720671  -2.19533428  -3.85402073
 C   2.03782030  -1.91088862  -3.19108695
 H   2.31673707  -0.87201754  -3.02631296
 C   0.47870203  -3.52424985  -4.04048817
 H  -0.45899875  -3.73561852  -4.55146744
 C   2.81053774  -2.93789000  -2.66072257
 H   3.68760393  -2.68170458  -2.07759629
 C   1.26847877  -4.55200447  -3.54364094
 H   0.96146954  -5.58115791  -3.68983206
 C   2.43283061  -4.26202480  -2.83881240
 H   3.04091648  -5.06208087  -2.43457095
 N  -0.24864953  -1.67049302  -1.07793754
 H   0.12763998  -2.47315962  -1.58030902
 C   0.36555898  -1.35487226   0.20612397
 H  -0.22512345  -0.52566493   0.60813435
 C   1.79291783  -0.86723401  -0.03580376
 C   0.31736623  -2.51405496   1.20825213
 H   0.98111791  -3.29483920   0.83226240
 O   2.79027533  -1.56268177   0.15799430
 C   0.80920276  -2.03608983   2.58051076
 H   0.15288575  -1.24285546   2.94618848
 H   0.79417896  -2.85524261   3.30259228
 H   1.82637634  -1.63972504   2.53277052
 C  -1.09635738  -3.07383218   1.34945519
 H  -1.76830799  -2.30181913   1.73486236
 H  -1.49183481  -3.43648103   0.40060869
 H  -1.09772041  -3.90521707   2.05870155
 N   1.90241395   0.38124937  -0.54684739
 H   1.07603516   0.95816313  -0.59767753
 C   3.20203573   1.02678439  -0.47049681
 H   3.91037033   0.39527749  -1.00563562
 C   3.64345121   1.10530669   0.99730458
 C   3.14225614   2.40835682  -1.12121617
 H   2.76994160   2.25740682  -2.13939840
 H   2.39452002   3.00618185  -0.58963898
 O   2.86096407   1.22471795   1.92298469
 C   4.46346517   3.17867426  -1.16250820
 H   4.83268096   3.35391562  -0.15001111
 H   4.30317868   4.15515284  -1.62204087
 C   5.53117410   2.40968082  -1.92035486
 N   5.84049558   2.88496773  -3.15349149
 H   5.35285783   3.65932257  -3.56263698
 H   6.50456996   2.36987152  -3.70245253
 O   6.07034443   1.41748927  -1.45157256
 N   4.98375795   1.03222657   1.18973369
 H   5.60978804   0.92035465   0.39929158
 C   5.51625644   0.89008909   2.51392046
 H   4.99468695   1.57558623   3.18337434
 C   7.03540439   1.23193213   2.44771288
 C   5.42766495  -0.53814257   3.02828832
 H   5.94900654  -1.18470917   2.31561597
 H   4.37881084  -0.84302160   3.05510204
 O   7.42272907   2.17795761   3.14795143
 C   6.07838689  -0.64135533   4.40273210
 H   7.07814237  -0.20018592   4.34416827
 H   5.50323415  -0.03579880   5.11225628
 C   6.15149922  -2.07370769   4.90139630
 H   6.79671594  -2.65195039   4.23201644
 H   5.15672727  -2.52500945   4.84925220
 C   6.66371322  -2.20477023   6.32383319
 H   5.97006739  -1.70462928   7.00419985
 H   6.69376899  -3.25646909   6.61356122
 N   8.01414894  -1.60604725   6.48732565
 H   8.47551253  -1.91756772   7.34197212
 H   7.96141841  -0.58917733   6.51972703
 H   8.60646064  -1.84886729   5.69529868
 O   7.70254806   0.49720218   1.69469819
