21
conf-578
 N  -5.70029236  -3.86680977  -3.29478120
 H  -5.46795480  -3.98549401  -4.28321240
 H  -6.69675724  -4.03618305  -3.16731145
 H  -5.18136866  -4.56716349  -2.76317062
 C  -5.30840986  -2.51704603  -2.81749062
 H  -5.61885093  -1.78982869  -3.57310793
 C  -3.78768075  -2.46818329  -2.70887618
 C  -6.00935510  -2.15106376  -1.49515197
 H  -7.06299188  -2.00283403  -1.77001450
 O  -3.16069611  -3.22076858  -1.97496926
 C  -5.48887780  -0.84196791  -0.89564136
 H  -4.42656904  -0.96668796  -0.66195874
 H  -6.00001621  -0.69497819   0.06013132
 C  -5.95116912  -3.25272961  -0.44107072
 H  -4.91709816  -3.46001286  -0.16750509
 H  -6.49504878  -2.94482803   0.45298741
 H  -6.40357384  -4.17372728  -0.80551802
 C  -5.70342652   0.39835723  -1.75360556
 H  -5.37331822   1.29211081  -1.21947106
 H  -5.12921759   0.35919809  -2.68075548
 H  -6.75747781   0.53078478  -2.01100599
 N  -3.17144110  -1.57620084  -3.53158742
 H  -3.72415741  -0.83161201  -3.92036498
 C  -1.74635733  -1.32312655  -3.39061524
 H  -1.25656729  -2.28714372  -3.25919266
 C  -1.49478948  -0.44218753  -2.16853533
 C  -1.20282907  -0.62723420  -4.64384707
 H  -1.72178589   0.32372229  -4.76729755
 H  -1.44851543  -1.25944084  -5.49780566
 O  -2.20595658   0.52304986  -1.90442811
 C   0.28506038  -0.40880304  -4.56511099
 C   0.80558737   0.84042656  -4.23534723
 H   0.12812464   1.66089834  -4.01898243
 C   1.16522961  -1.46796350  -4.78252377
 H   0.75692832  -2.44761058  -5.01442023
 C   2.18447093   1.03503938  -4.16931940
 H   2.57302066   2.01766034  -3.92428210
 C   2.54295319  -1.27791388  -4.70796042
 H   3.20939258  -2.11209535  -4.88946773
 C   3.05753764  -0.02077141  -4.40854635
 H   4.12856422   0.13341289  -4.35874789
 N  -0.40961940  -0.79788234  -1.43217034
 H   0.26182567  -1.42919414  -1.83880698
 C   0.10967958   0.09801790  -0.41079222
 H  -0.37200625   1.06534462  -0.56038203
 C   1.61086521   0.22722403  -0.61326903
 C  -0.23312765  -0.37657276   1.02022820
 H  -1.32658833  -0.38507028   1.04730946
 O   2.31728848  -0.73784967  -0.87598354
 C   0.29002310  -1.77608636   1.33320682
 H   1.38072774  -1.75769564   1.39109412
 H  -0.09239239  -2.11146930   2.30142686
 H  -0.00148558  -2.50004377   0.57155367
 C   0.28265878   0.60143751   2.07840168
 H   1.37901859   0.60420473   2.12340200
 H  -0.06147162   1.62262162   1.90085723
 H  -0.07200856   0.29938910   3.06873776
 N   2.11915723   1.48532426  -0.46994258
 H   1.53272605   2.17624290  -0.03116795
 C   3.55268320   1.68024145  -0.29144957
 H   4.04452291   0.96620243  -0.95417299
 C   3.97210458   1.38483307   1.16433814
 C   3.94205118   3.11907647  -0.64741869
 H   3.69546990   3.28725977  -1.69567094
 H   3.34281369   3.81048873  -0.05277861
 O   3.46055365   1.99784993   2.12008043
 C   5.41704283   3.39410729  -0.37755514
 H   6.06232596   2.71505161  -0.93905292
 H   5.62101109   3.21433318   0.68349915
 C   5.78968408   4.84500824  -0.65386991
 N   7.10884355   5.05489141  -0.93045852
 H   7.78734235   4.31766095  -0.89613586
 H   7.41163547   6.00383563  -1.06007598
 O   4.98371687   5.75291071  -0.58750338
 N   4.98601097   0.45488791   1.27408775
 H   5.60030855   0.34738002   0.47565521
 C   5.79153618   0.39008121   2.46660839
 H   5.46348832   1.17279454   3.16425742
 C   7.25604649   0.68104783   2.02485333
 C   5.76051560  -0.97500311   3.15423125
 H   6.39170876  -0.90202376   4.04589943
 H   6.22207141  -1.72765463   2.50385121
 O   8.06066825   0.89384077   2.93364367
 C   4.35143683  -1.42496592   3.53101014
 H   3.76141853  -1.56391170   2.61467189
 H   4.40290745  -2.40186866   4.01900181
 C   3.61603532  -0.44075729   4.42027358
 H   3.60729973   0.53649518   3.94227665
 H   4.13503030  -0.32346946   5.37348798
 C   2.17928614  -0.84339063   4.66484975
 H   1.70157771  -1.06260638   3.69917298
 H   2.14646011  -1.75545792   5.26609706
 N   1.41310455   0.23157248   5.33796058
 H   0.45041727  -0.05016026   5.53024828
 H   1.38072001   1.05761055   4.74204075
 H   1.84908058   0.49685556   6.22346575
 O   7.45201448   0.65213682   0.78583684
