21
conf-584
 N  -6.21267813  -2.91959426  -4.62999783
 H  -6.37009622  -2.22348107  -5.36025779
 H  -7.08766815  -3.38486621  -4.40393543
 H  -5.55573210  -3.60954612  -5.00075059
 C  -5.58904313  -2.30743370  -3.43965130
 H  -5.98867114  -1.29467270  -3.32545160
 C  -4.08533842  -2.22106389  -3.70040498
 C  -5.93279659  -3.10450044  -2.16090497
 H  -7.03002197  -3.08961217  -2.12465829
 O  -3.52907281  -2.98577368  -4.48048911
 C  -5.42094294  -2.47444697  -0.86593608
 H  -4.32949512  -2.47203854  -0.87508992
 H  -5.70373994  -3.14530579  -0.04838688
 C  -5.47518330  -4.55818261  -2.23744215
 H  -4.38738953  -4.61711060  -2.19241126
 H  -5.88210390  -5.12737752  -1.39975072
 H  -5.80271942  -5.03195412  -3.16201064
 C  -5.95863845  -1.08634052  -0.55692865
 H  -5.50948760  -0.69689097   0.36057131
 H  -5.73603659  -0.36981564  -1.35298098
 H  -7.04398476  -1.10393555  -0.42203405
 N  -3.42493277  -1.26505543  -3.00436213
 H  -3.89957464  -0.70027841  -2.32000372
 C  -1.98877921  -1.14825327  -3.00725207
 H  -1.58163278  -2.10461658  -3.34304248
 C  -1.55099818  -0.82413472  -1.57358774
 C  -1.51455437  -0.05373345  -3.97761798
 H  -0.42414543   0.00501412  -3.93346458
 H  -1.90802396   0.90757572  -3.63904144
 O  -2.31490988  -0.28758479  -0.77927281
 C  -1.96822988  -0.33542049  -5.38606192
 C  -1.19011276  -1.10440192  -6.25131456
 H  -0.22747406  -1.47669170  -5.91322492
 C  -3.19890286   0.14174192  -5.84481807
 H  -3.82089769   0.72361307  -5.17030904
 C  -1.63634882  -1.40701046  -7.53674244
 H  -1.01583349  -2.01116670  -8.18839513
 C  -3.64617584  -0.15283382  -7.13164387
 H  -4.60413469   0.23026161  -7.46381018
 C  -2.86846627  -0.93273369  -7.98020345
 H  -3.21635982  -1.16325998  -8.98077451
 N  -0.27218994  -1.15396568  -1.27871205
 H   0.34084537  -1.48756569  -2.00663770
 C   0.39002097  -0.73743032  -0.05213902
 H  -0.18073963   0.08834992   0.38346423
 C   1.79027663  -0.27228088  -0.44961434
 C   0.44934758  -1.87494599   0.99360370
 H   0.89846872  -2.73454348   0.49033328
 O   2.42774979  -0.85012956  -1.31820520
 C   1.30779210  -1.52342312   2.20944967
 H   0.93818275  -0.61099617   2.69176614
 H   1.25355606  -2.33394893   2.94020504
 H   2.35992388  -1.37471748   1.95548655
 C  -0.95995028  -2.23867660   1.45444150
 H  -1.39306106  -1.39844339   2.00521802
 H  -1.62050865  -2.46752308   0.61928293
 H  -0.93229134  -3.10609687   2.11589590
 N   2.27397103   0.79098968   0.24682206
 H   1.81002419   1.07542188   1.09648787
 C   3.68491796   1.09778299   0.26075878
 H   4.24583686   0.22607522  -0.09652856
 C   4.06198591   1.38218986   1.71453511
 C   4.04373201   2.28262437  -0.63258599
 H   3.54655596   3.18005234  -0.26464316
 H   5.11885887   2.46185746  -0.55761159
 O   3.23064966   1.46931239   2.60303388
 C   3.69412065   2.02270906  -2.09369747
 H   2.62003191   2.05348959  -2.26238211
 H   4.02862045   1.02526757  -2.38176684
 C   4.40148011   3.01006367  -3.01140673
 N   3.78456301   3.23808467  -4.20512478
 H   2.92728106   2.78853607  -4.46595343
 H   4.23992710   3.85583016  -4.85317174
 O   5.46528504   3.52705094  -2.72486743
 N   5.38964055   1.53421665   1.92615182
 H   6.03198907   1.75579792   1.17585127
 C   5.89413312   2.03469536   3.17373239
 H   5.26253465   2.85403160   3.53956388
 C   7.30322158   2.60464862   2.83636911
 C   5.99812592   0.98588002   4.27436011
 H   4.99629628   0.58873358   4.43685658
 H   6.30591226   1.49726407   5.19065682
 O   7.98861557   3.00956733   3.77663526
 C   6.97250486  -0.14350328   3.95587079
 H   6.69920764  -0.60551232   3.00468813
 H   7.97350517   0.27572723   3.82734746
 C   6.97063168  -1.19839502   5.04899183
 H   5.94360467  -1.54223727   5.20718177
 H   7.30459952  -0.75353220   5.99122673
 C   7.82865698  -2.40824929   4.73252956
 H   7.66754380  -3.18904824   5.47781167
 H   7.51803851  -2.81785947   3.76736411
 N   9.27679941  -2.08198258   4.67043547
 H   9.84555201  -2.89893658   4.44652633
 H   9.60820177  -1.70341669   5.55747785
 H   9.46208289  -1.37972529   3.95543861
 O   7.57770046   2.61361640   1.61410678
