21
conf-315
 N  -4.59840878  -2.33611528  -3.90132164
 H  -4.46201281  -2.52217443  -4.89591958
 H  -3.87779545  -2.84729122  -3.38103765
 H  -5.52762482  -2.63698387  -3.60526871
 C  -4.39617442  -0.91243708  -3.58357703
 H  -4.77225264  -0.29660709  -4.40348296
 C  -2.89975735  -0.69396138  -3.39348943
 C  -5.14517214  -0.53071705  -2.30394463
 H  -4.74554103  -1.12284307  -1.47548476
 H  -4.94385513   0.51801007  -2.07553849
 O  -2.17357025  -1.62421706  -3.04697804
 C  -6.63057487  -0.75653584  -2.43423023
 C  -7.39256626   0.04851521  -3.27873090
 H  -6.90190958   0.85379092  -3.81351822
 C  -7.25645770  -1.80685988  -1.77058179
 H  -6.67095215  -2.45699464  -1.12799059
 C  -8.75759212  -0.17003923  -3.43412865
 H  -9.33155133   0.47674305  -4.08801521
 C  -8.61881172  -2.04336269  -1.93314578
 H  -9.08468661  -2.87015452  -1.41002516
 C  -9.37507155  -1.22120512  -2.76283388
 H  -10.43724640  -1.39936069  -2.88611707
 N  -2.44627537   0.56601223  -3.55517075
 H  -3.07857019   1.27055066  -3.89246416
 C  -1.02905343   0.89973986  -3.51959770
 H  -0.47468313   0.05075624  -3.93490542
 C  -0.55278021   1.12480736  -2.08086994
 C  -0.76993454   2.13481490  -4.37254538
 H  -1.35929087   2.97431368  -3.98458047
 H  -1.08769270   1.92713479  -5.39606760
 O  -0.06600419   2.20642314  -1.71012780
 O   0.60630285   2.45588752  -4.41772920
 H   0.81378115   2.76782335  -3.52875841
 N  -0.68596842   0.09609623  -1.23189699
 H  -1.09406591  -0.77223119  -1.56048889
 C  -0.43020514   0.27399323   0.18088438
 H  -0.65363927   1.31877915   0.41214657
 C   1.04323851   0.01556385   0.50327671
 C  -1.31870480  -0.62215981   1.00543291
 H  -1.03167333  -0.54466635   2.06099476
 H  -1.17347020  -1.66530491   0.70339325
 O   1.40550733  -0.86072963   1.28270590
 O  -2.65814199  -0.18726619   0.78156364
 H  -3.22850259  -0.70208732   1.35662509
 N   1.92077995   0.80439298  -0.16715775
 H   1.55867973   1.61414167  -0.65395891
 C   3.34265384   0.69927376   0.07261931
 H   3.54382229  -0.30359913   0.44158755
 C   3.75731877   1.72900412   1.15015118
 C   4.13661396   0.97519048  -1.20226020
 H   3.66633380   0.45431811  -2.03461955
 H   4.12965901   2.04363993  -1.41872056
 O   3.40891952   2.93425841   1.08156354
 C   5.55369128   0.48464217  -1.10673650
 O   5.93507028  -0.38275369  -0.35611788
 O   6.36618448   1.10706571  -1.98009026
 N   4.51892761   1.18641694   2.13281768
 H   4.99569938   0.30994865   1.96829674
 C   4.85314156   1.95437029   3.30391708
 H   4.57921534   2.99147494   3.09587992
 C   6.34261730   1.91492874   3.54526839
 C   4.11783045   1.47064128   4.56969881
 H   4.28664100   2.21906557   5.34520955
 H   4.57694844   0.54327444   4.92456715
 O   7.09836368   1.07853408   3.12774638
 C   2.61619652   1.24558346   4.36089538
 H   2.17047922   0.89331341   5.29635544
 H   2.46562382   0.44578912   3.62929043
 C   1.88294746   2.50009344   3.87705796
 H   1.51456918   3.09534120   4.71393358
 H   2.56168805   3.13228890   3.32694036
 N   0.78848428   2.11931415   2.98137635
 H   0.27674027   1.31277486   3.30206656
 N   0.60398623   4.26685919   2.08729159
 H   0.02316147   4.84508659   1.50189320
 H   1.56501891   4.20878943   1.80090268
 N  -1.26887487   2.93999816   2.13073905
 H  -1.59923077   2.02376124   2.42401330
 C  -0.01961052   3.07802563   2.39035881
 O   6.73003071   2.93450657   4.33772151
 H   7.24180662   0.71327277  -1.86682818
 H   7.68103116   2.82420076   4.46651208
