21
conf-156
 N  -4.53358376  -0.74276554  -5.00930616
 H  -4.38483928  -1.44883411  -5.73260238
 H  -4.63041972  -1.23224547  -4.11559064
 H  -5.39241544  -0.23441826  -5.21028984
 C  -3.37679616   0.16461360  -4.88748756
 H  -3.04312390   0.48692405  -5.87764300
 C  -2.25187981  -0.59506999  -4.19769264
 C  -3.74192441   1.41164666  -4.07630552
 H  -4.53615973   1.93788561  -4.61092914
 H  -4.14379040   1.07415693  -3.11824075
 O  -2.49168287  -1.47490471  -3.37425634
 C  -2.55533785   2.30159389  -3.84024510
 C  -1.89380641   2.25297473  -2.61304972
 H  -2.29412247   1.62490147  -1.82581088
 C  -2.03609880   3.10476438  -4.85318186
 H  -2.54308762   3.12892130  -5.81458164
 C  -0.73656809   3.00178371  -2.40461804
 H  -0.26610359   2.99004773  -1.43558695
 C  -0.86177638   3.83225159  -4.65775442
 H  -0.46528190   4.43178200  -5.46734353
 C  -0.20992487   3.78289772  -3.42807187
 H   0.70225383   4.34071107  -3.26004549
 N  -0.99914240  -0.22973572  -4.53527267
 H  -0.85181202   0.64187178  -5.02703280
 C   0.17162974  -0.81668220  -3.90960031
 H  -0.01594451  -1.88555961  -3.79492827
 C   0.42236763  -0.19494963  -2.53252767
 C   1.37006897  -0.54921691  -4.80063752
 H   1.21059258  -1.01680523  -5.77298349
 H   2.27423346  -0.96397673  -4.34123619
 O   1.30213015   0.63137315  -2.32791709
 O   1.51157719   0.83998763  -5.03033577
 H   1.70474806   1.20094195  -4.15309653
 N  -0.39264624  -0.58577944  -1.53576988
 H  -1.22359489  -1.13613233  -1.72759355
 C  -0.25932253   0.12712619  -0.28410779
 H  -0.49130480   1.18470342  -0.44663688
 C   1.18959207  -0.01647426   0.15940173
 C  -1.20045442  -0.43803513   0.74300421
 H  -1.01413312   0.01218184   1.72496008
 H  -1.02515028  -1.51850199   0.80458333
 O   1.72551747  -1.11009480   0.22987271
 O  -2.51998737  -0.14121129   0.28605961
 H  -3.14940072  -0.63149964   0.82148935
 N   1.82065331   1.15972695   0.40772795
 H   1.33408049   1.99832650   0.14295877
 C   3.26275154   1.23034692   0.28535618
 H   3.53614306   0.79487891  -0.67976842
 C   3.90768757   0.40409255   1.39549662
 C   3.75109386   2.67631797   0.38962286
 H   3.41988501   3.07631073   1.34883592
 H   4.83925323   2.72277032   0.37465588
 O   3.61057133   0.52960864   2.57152297
 C   3.22343787   3.58977432  -0.68122449
 O   2.11536237   3.53109875  -1.17086577
 O   4.10949303   4.53748302  -1.02444184
 N   4.83857370  -0.47826220   0.95282664
 H   5.02442764  -0.54975102  -0.02858660
 C   5.51070902  -1.37758768   1.85537202
 H   5.22001212  -1.05759520   2.86096205
 C   7.02084802  -1.25000657   1.79337082
 C   5.08002580  -2.82933887   1.64596597
 H   5.74509672  -3.49183066   2.20178814
 H   5.19493160  -3.07320714   0.58693255
 O   7.77669781  -2.03753177   2.30187572
 C   3.63392089  -3.03082920   2.08103465
 H   3.04287385  -2.17316284   1.77437084
 H   3.57700400  -3.07392034   3.17177644
 C   3.01468834  -4.29374143   1.49092453
 H   3.07430045  -4.24594974   0.39793051
 H   3.55530511  -5.18321808   1.81841361
 N   1.59854088  -4.43196219   1.82066668
 H   1.06021551  -3.69936327   1.37479719
 N   2.07699258  -5.37155421   3.91381513
 H   1.66623091  -5.58037723   4.81151669
 H   2.43869057  -6.18226372   3.43611558
 N   0.22853687  -4.00327955   3.72551927
 H  -0.27145488  -3.42146828   3.06042648
 C   1.23165118  -4.56768511   3.16344687
 O   7.43965266  -0.14121727   1.15199177
 H   3.67688141   5.09011191  -1.69088193
 H   8.40410202  -0.14894479   1.21382248
