21
conf-746
 N  -4.89860561  -0.83464166  -6.37715730
 H  -4.29251246  -0.59582404  -7.16311122
 H  -4.80118200  -1.84064236  -6.19730295
 H  -5.86829118  -0.59599038  -6.58598901
 C  -4.46008249  -0.17850654  -5.13422594
 H  -4.00264928   0.78738152  -5.36652893
 C  -3.44265693  -1.11073445  -4.47272888
 C  -5.64422487   0.06107137  -4.19234727
 H  -6.08063116  -0.90346382  -3.92205706
 H  -5.27359722   0.51708998  -3.27169390
 O  -3.42789154  -2.30508887  -4.73915532
 C  -6.69428381   0.94121986  -4.82156391
 C  -6.42978313   2.28749712  -5.06574968
 H  -5.46870381   2.69192474  -4.76954481
 C  -7.91788457   0.41804085  -5.22711920
 H  -8.13047546  -0.63367361  -5.06059693
 C  -7.37841438   3.10257392  -5.67485389
 H  -7.15371214   4.14952862  -5.84413420
 C  -8.86668009   1.22232756  -5.85239405
 H  -9.81140504   0.79261529  -6.16421291
 C  -8.60057149   2.57009343  -6.07426154
 H  -9.33979215   3.20013268  -6.55567396
 N  -2.62835415  -0.55403453  -3.55456474
 H  -2.65544813   0.42541658  -3.32327078
 C  -1.65929866  -1.33471285  -2.81484471
 H  -2.13643067  -2.24831438  -2.45470430
 C  -1.20092656  -0.45994979  -1.65092087
 C  -0.49090435  -1.75057639  -3.69209781
 H  -0.89472683  -2.27965542  -4.55816686
 H   0.15943348  -2.43988833  -3.13439168
 O  -1.49886537   0.71478249  -1.56045069
 O   0.19863071  -0.56468022  -4.06637340
 H   0.81019928  -0.77899709  -4.77534788
 N  -0.45195690  -1.10828322  -0.71262883
 H   0.00826237  -1.95997355  -0.99527275
 C   0.18737337  -0.35047798   0.35460194
 H  -0.39420128   0.56602040   0.46356305
 C   1.62275535  -0.04805584  -0.05364289
 C   0.12356084  -1.15096307   1.64499392
 H   0.58652691  -0.59801587   2.46444093
 H   0.67654542  -2.08831553   1.51054972
 O   2.50058430  -0.91356422  -0.00677765
 O  -1.22082131  -1.37450278   2.02503787
 H  -1.65635512  -1.75748718   1.25848204
 N   1.85394395   1.19222225  -0.51351896
 H   1.14742827   1.90791127  -0.45139260
 C   3.17613847   1.58393074  -0.96886159
 H   3.61811496   0.67280307  -1.38197216
 C   4.07064537   2.04373602   0.18230893
 C   3.12261418   2.65008882  -2.06239975
 H   4.12133246   2.78856772  -2.48156146
 H   2.47073117   2.28951013  -2.86087711
 O   4.59024223   3.14769636   0.21057114
 C   2.63413976   4.01103974  -1.65091599
 O   3.02634083   5.04971110  -2.11340711
 O   1.65322399   3.94989955  -0.71762178
 N   4.24922774   1.15464508   1.18916886
 H   3.97159627   0.19357472   1.03700863
 C   5.27304586   1.46890889   2.16212765
 H   5.00866439   2.41264967   2.65127484
 C   6.59703275   1.66493481   1.44205744
 C   5.38288890   0.35035550   3.20074551
 H   5.70329870  -0.56379041   2.69430791
 H   4.37802475   0.17433733   3.59130096
 O   6.95448273   1.05850387   0.46688757
 C   6.32386715   0.66556881   4.35271290
 H   6.03109137   1.61031992   4.81602932
 H   7.34652279   0.78927922   3.99250128
 C   6.29894354  -0.42166532   5.41489186
 H   5.28337257  -0.52219884   5.80486625
 H   6.57922667  -1.38291289   4.96471984
 N   7.19602871  -0.07076734   6.49911097
 H   8.05644892   0.36481596   6.21374695
 N   6.26096156  -1.70069061   7.89690801
 H   6.46684056  -2.28040414   8.69608223
 H   5.92150506  -2.21673097   7.10230303
 N   8.22249908  -0.67836252   8.54672083
 H   8.87309035   0.05276833   8.27441817
 C   7.30644630  -0.81592010   7.66110641
 O   7.36998766   2.58450932   2.06826647
 H   1.39887132   4.85795139  -0.51071058
 H   8.19152678   2.61835908   1.56503362
