21
conf-564
 N  -5.78085975  -1.92675937  -4.35032791
 H  -5.77772990  -2.08985710  -5.35800423
 H  -5.22177044  -2.67014838  -3.91897037
 H  -6.73540162  -1.95312210  -3.99934288
 C  -5.08108131  -0.67349556  -4.00370074
 H  -5.20625965   0.06223466  -4.80320293
 C  -3.59999080  -1.04796113  -3.85868316
 C  -5.62988726  -0.07104927  -2.70127225
 H  -6.72266056  -0.08758388  -2.77161514
 H  -5.33928966  -0.71231755  -1.86401909
 O  -3.27201953  -2.20103119  -3.62354634
 C  -5.15759415   1.34216687  -2.48716613
 C  -4.07742236   1.61931072  -1.66047516
 H  -3.57756646   0.80739882  -1.13564996
 C  -5.75207658   2.39030335  -3.18955309
 H  -6.59473958   2.17523646  -3.83896077
 C  -3.55840418   2.90663359  -1.58114052
 H  -2.66350424   3.05995870  -0.99349754
 C  -5.27198438   3.68975597  -3.06721600
 H  -5.75263378   4.49339924  -3.61197605
 C  -4.16027787   3.95099484  -2.26478060
 H  -3.76887278   4.95950224  -2.18870725
 N  -2.69376216  -0.04513383  -4.02978444
 H  -3.00625381   0.90120015  -3.84894720
 C  -1.30372084  -0.30571473  -3.71144245
 H  -1.11481519  -1.36514080  -3.89228898
 C  -1.03951980   0.01734181  -2.22490242
 C  -0.36235257   0.51241423  -4.58144986
 H  -0.55938199   1.58561318  -4.46004373
 H  -0.50434921   0.23652820  -5.62734059
 O  -1.16221529   1.18978786  -1.81889959
 O   0.97060806   0.19877757  -4.21107328
 H   1.29943282   0.91971859  -3.64847428
 N  -0.73976512  -1.03644132  -1.43921525
 H  -0.62557167  -1.94850768  -1.85091746
 C  -0.33426656  -0.87566803  -0.05924631
 H  -0.79725302   0.04320546   0.30674837
 C   1.19393590  -0.76196712   0.01050477
 C  -0.82386523  -2.07280814   0.72523204
 H  -1.91371502  -2.10073845   0.69220368
 H  -0.49706092  -1.99677554   1.76787161
 O   1.88926258  -1.65101684   0.49064230
 O  -0.36090982  -3.26961936   0.13118578
 H   0.59306094  -3.26553486   0.28114761
 N   1.71717255   0.35518126  -0.54354634
 H   1.11322693   1.10706735  -0.85293232
 C   3.12714094   0.63376624  -0.41800094
 H   3.55855685  -0.21617076   0.10475122
 C   3.31646225   1.92508054   0.37760599
 C   3.81188550   0.78958634  -1.78770228
 H   4.89566239   0.75475984  -1.66800851
 H   3.48487383  -0.01387819  -2.45246802
 O   2.51340298   2.83687884   0.33559089
 C   3.42403393   2.10313253  -2.40268848
 O   2.35017039   2.32143652  -2.93266992
 O   4.37930799   3.03433030  -2.30083046
 N   4.47793130   1.99845709   1.08441699
 H   5.17794082   1.28261328   0.96788887
 C   4.93510263   3.25153829   1.64885105
 H   4.40829630   4.07151569   1.15000962
 C   6.41687740   3.38650083   1.37726768
 C   4.68530834   3.37272233   3.15822309
 H   5.14719228   4.30424936   3.48526265
 H   5.19657158   2.56105826   3.68022456
 O   7.15268173   2.48799302   1.05843258
 C   3.20157987   3.36807400   3.49131668
 H   2.74791641   2.42823083   3.17736301
 H   2.70803837   4.15824536   2.92236176
 C   2.90792376   3.56461131   4.97856861
 H   1.82846509   3.55555648   5.14067007
 H   3.31780814   2.73424607   5.55896003
 N   3.45231404   4.79591809   5.55353015
 H   4.43277250   4.70146986   5.76987144
 N   1.88466420   6.18298009   4.52306517
 H   1.71515761   7.13451522   4.23298693
 H   1.19837234   5.82220529   5.16862100
 N   4.07241947   6.91353266   4.64599183
 H   4.99639816   6.60524189   4.94329002
 C   3.20237481   6.01162057   4.91336432
 O   6.84127436   4.65128977   1.56773081
 H   4.01474928   3.85329220  -2.66501438
 H   7.79293248   4.63980397   1.40372860
