21
conf-876
 N  -4.69379195  -0.41584128  -6.74710970
 H  -3.93875210  -0.21292390  -7.40294869
 H  -4.74234053  -1.43305065  -6.63028240
 H  -5.57962510  -0.05479363  -7.10259700
 C  -4.41041727   0.13939610  -5.41410557
 H  -3.85112925   1.07366891  -5.51377823
 C  -3.57499846  -0.89589007  -4.66157192
 C  -5.70533678   0.43405306  -4.65183565
 H  -6.24886976  -0.50187706  -4.50327449
 H  -5.45125836   0.82071399  -3.66290603
 O  -3.55351805  -2.06569871  -5.04132356
 C  -6.57330344   1.42293264  -5.38749304
 C  -6.17755361   2.75371760  -5.50650245
 H  -5.25275788   3.06666920  -5.03548160
 C  -7.74616091   1.01688993  -6.01572292
 H  -8.05506626  -0.02187606  -5.94878153
 C  -6.95190998   3.66826676  -6.21296359
 H  -6.62920542   4.70087957  -6.28259309
 C  -8.51846521   1.92143931  -6.73908128
 H  -9.42595350   1.58253681  -7.22473349
 C  -8.12498808   3.25270951  -6.83585419
 H  -8.72767029   3.96050794  -7.39350027
 N  -2.92340570  -0.46796412  -3.56634619
 H  -2.89106332   0.50991321  -3.31861351
 C  -2.22511086  -1.34469987  -2.64456929
 H  -2.89781365  -2.12574460  -2.28034999
 C  -1.79642967  -0.44872086  -1.48542900
 C  -1.01633158  -2.06335732  -3.27656775
 H  -0.27351025  -2.27943078  -2.50253299
 H  -0.54615185  -1.38321842  -3.99670641
 O  -1.74231041   0.76930138  -1.58819184
 O  -1.38389223  -3.29221099  -3.85741268
 H  -2.15084990  -3.11892307  -4.41863212
 N  -1.47531643  -1.10864274  -0.33953199
 H  -1.27815506  -2.08840900  -0.43817038
 C  -0.71989089  -0.40441052   0.68100001
 H  -1.15948630   0.59179595   0.76936375
 C   0.74576381  -0.23553366   0.22476714
 C  -0.85410395  -1.10554392   2.02181968
 H  -0.22767038  -2.00635116   2.04767171
 H  -1.90002431  -1.39905289   2.14411303
 O   1.14409009  -0.64678630  -0.85608606
 O  -0.47665466  -0.17142763   3.03271454
 H  -0.37340212  -0.64394090   3.86283184
 N   1.53330618   0.42957956   1.10031101
 H   1.15406891   0.70475754   1.99720993
 C   2.79501313   0.99258694   0.69371230
 H   3.20295470   0.35517589  -0.09005439
 C   3.72352426   1.03169676   1.91038169
 C   2.64624690   2.42780085   0.12838698
 H   2.24892124   3.08314918   0.90709415
 H   3.61986090   2.79167227  -0.19814539
 O   3.30198163   1.21274742   3.03854201
 C   1.71165080   2.42303288  -1.05858060
 O   2.05522401   2.26919784  -2.20422132
 O   0.43438408   2.59673075  -0.67445018
 N   5.04277440   0.88727534   1.62800839
 H   5.33273412   0.83629786   0.66704575
 C   6.03605786   1.19502041   2.62923967
 H   5.48599851   1.60111562   3.48489944
 C   6.97359773   2.30255345   2.19231646
 C   6.81474127  -0.02933494   3.10584614
 H   7.62241529   0.32613716   3.74615995
 H   7.27745976  -0.53470631   2.25562016
 O   8.00627169   2.57074435   2.74888106
 C   5.91613134  -0.99727529   3.85709668
 H   5.05401379  -1.25374368   3.23999207
 H   5.51924104  -0.51093409   4.75270121
 C   6.62028023  -2.27843928   4.25670906
 H   5.89421950  -2.98345494   4.66946100
 H   7.05852285  -2.75428765   3.36911379
 N   7.63647319  -2.02967881   5.26711954
 H   8.16652028  -1.19003491   5.09141486
 N   9.48341817  -2.64610227   6.50689778
 H   9.94828954  -3.43254936   6.93803690
 H   9.20623119  -1.94672811   7.17862064
 N   8.36655735  -4.31651602   5.34522138
 H   7.59926864  -4.45203191   4.69559552
 C   8.45758241  -3.08271796   5.67265615
 O   6.50685029   3.00478392   1.13765196
 H  -0.13870283   2.36402763  -1.42522548
 H   7.15260128   3.70415217   0.96975535
