21
conf-102
 N  -5.44933593  -2.07694872  -3.04793313
 H  -5.43241278  -2.35636959  -4.03066992
 H  -5.21453246  -2.89731431  -2.48372809
 H  -6.38711625  -1.76156364  -2.79609262
 C  -4.47556984  -1.00023665  -2.78556768
 H  -4.68504848  -0.17516790  -3.46866200
 C  -3.01516383  -1.45338855  -3.04049231
 C  -4.60410713  -0.48489693  -1.35557345
 H  -4.34105169  -1.30012869  -0.67887252
 H  -3.86421140   0.30488441  -1.20590553
 O  -2.59524528  -2.62364382  -2.83961120
 C  -5.98698516   0.03311551  -1.05153436
 C  -6.47387009   1.15595634  -1.71410642
 H  -5.83158451   1.65450623  -2.43097120
 C  -6.81455408  -0.61857128  -0.14344461
 H  -6.44963610  -1.49993767   0.37351106
 C  -7.75494559   1.63486131  -1.46136201
 H  -8.11050735   2.51578445  -1.98403141
 C  -8.10313264  -0.15515781   0.10672228
 H  -8.73286164  -0.67818639   0.81718823
 C  -8.57577179   0.97639466  -0.55073488
 H  -9.57711106   1.34306100  -0.35500894
 N  -2.22841877  -0.41124639  -3.49877637
 H  -2.55421076   0.51615696  -3.28252578
 C  -0.78067563  -0.59231605  -3.60412774
 H  -0.65078518  -1.63132516  -3.91802059
 C  -0.15228343  -0.35120569  -2.23575604
 C  -0.23746811   0.34201339  -4.66320016
 H   0.84741210   0.24970933  -4.73653993
 H  -0.46070216   1.37834330  -4.37774741
 O   0.09403886   0.77621029  -1.81891517
 O  -0.75951423   0.01626606  -5.93718903
 H  -1.70863704  -0.08292803  -5.82056401
 N   0.06017460  -1.46901022  -1.49868327
 H  -0.36534308  -2.30493984  -1.87185241
 C   0.12849129  -1.38621520  -0.05398738
 H  -0.34454006  -0.45248381   0.26139423
 C   1.63263288  -1.31515233   0.34593372
 C  -0.60261825  -2.55814324   0.57451271
 H  -0.53156345  -2.49321287   1.65954303
 H  -0.13019840  -3.49539785   0.24506470
 O   2.21353130  -2.21884831   1.00751175
 O  -1.98868732  -2.53408496   0.24724668
 H  -2.10043842  -2.89491837  -0.63844763
 N   2.22679491  -0.17715627  -0.12837619
 H   1.61097726   0.54176878  -0.48291159
 C   3.52546134   0.23337730   0.35981141
 H   4.02007252  -0.66205632   0.72895920
 C   3.34960387   1.23012974   1.50230334
 C   4.38876676   0.81356386  -0.74794368
 H   4.33321603   0.14213736  -1.60651018
 H   4.04038702   1.79650887  -1.06653914
 O   2.44671016   2.04427151   1.53011472
 C   5.83010070   0.87597352  -0.32908753
 O   6.32136699   0.14780596   0.50466977
 O   6.53318939   1.80789181  -0.99207351
 N   4.26919903   1.11022652   2.49546921
 H   5.04972746   0.47762746   2.38229518
 C   3.91506647   1.50898636   3.84006372
 H   3.11295665   2.24663157   3.76185893
 C   5.11714079   2.13365312   4.51232266
 C   3.42432731   0.31921266   4.69045185
 H   3.09288526   0.70575164   5.65358321
 H   4.27031680  -0.34636859   4.88567568
 O   6.25984250   1.99336080   4.16742269
 C   2.30457755  -0.46894217   4.01886865
 H   2.62723922  -0.81362074   3.03301524
 H   1.43822180   0.17680171   3.85568830
 C   1.88039353  -1.69044758   4.82658397
 H   2.76588620  -2.19619750   5.22677419
 H   1.25680153  -1.39129352   5.67355988
 N   1.14024489  -2.60271896   3.97375348
 H   1.54008451  -2.69528534   3.05757128
 N   0.20122008  -4.64951766   3.45288043
 H  -0.04047533  -5.55025142   3.84079491
 H   0.82078904  -4.71570327   2.65943443
 N   0.40980473  -4.09788066   5.68905515
 H   0.73139801  -3.36293830   6.30919727
 C   0.61908411  -3.78310092   4.46692666
 O   4.75465997   2.85025370   5.59665761
 H   7.44058051   1.75411920  -0.66185954
 H   5.57592061   3.18895596   5.97445743
