21
conf-879
 N  -6.09562293   0.13712828  -4.90427808
 H  -6.19077761  -0.08351548  -5.89499091
 H  -6.01223568  -0.75003146  -4.39192665
 H  -6.91829546   0.63641118  -4.57574977
 C  -4.84653694   0.87069697  -4.62476517
 H  -4.56368649   1.48589306  -5.48597248
 C  -3.76544749  -0.18661736  -4.39466536
 C  -5.00851435   1.78097666  -3.39347698
 H  -4.03914627   2.24165206  -3.17638313
 H  -5.70681864   2.58270023  -3.65310819
 O  -4.05515605  -1.35649607  -4.19852459
 C  -5.50323774   1.03937578  -2.18444568
 C  -6.85419884   0.95019297  -1.85833971
 H  -7.59009076   1.47900808  -2.45325874
 C  -4.58675234   0.37339044  -1.37065908
 H  -3.53321832   0.47284463  -1.61146257
 C  -7.27149600   0.18826126  -0.76747062
 H  -8.32886136   0.12622784  -0.53674407
 C  -4.99038303  -0.39873633  -0.28740009
 H  -4.23805765  -0.90701085   0.29872680
 C  -6.34597907  -0.49475187   0.01655038
 H  -6.68191387  -1.08971357   0.85884041
 N  -2.47214237   0.25002468  -4.41479777
 H  -2.30372267   1.24002576  -4.35085473
 C  -1.43735936  -0.59441957  -3.86037855
 H  -1.75772016  -1.63063188  -3.97549061
 C  -1.23243921  -0.28806273  -2.37071774
 C  -0.10499620  -0.41304927  -4.57954434
 H   0.30897273   0.58376821  -4.37240545
 H  -0.26080040  -0.52453701  -5.65212365
 O  -1.34625239   0.85339417  -1.93179233
 O   0.78479883  -1.43803388  -4.16919731
 H   1.31292107  -1.10864463  -3.43519592
 N  -0.91639892  -1.36047622  -1.60100533
 H  -0.55976819  -2.16878842  -2.08890754
 C  -0.38932478  -1.16837999  -0.26060587
 H  -0.90281970  -0.30791783   0.16759390
 C   1.11447978  -0.93524503  -0.36398079
 C  -0.65050419  -2.40355486   0.57596980
 H  -0.22207790  -2.27253822   1.57843556
 H  -0.15341513  -3.25789989   0.10172366
 O   1.81809851  -1.65221089  -1.07418407
 O  -2.06015519  -2.58800933   0.64225592
 H  -2.22905146  -3.42956101   1.07398941
 N   1.60965809   0.09379237   0.35478173
 H   1.05345854   0.58517311   1.03965457
 C   3.02259794   0.38065386   0.39950828
 H   3.57970605  -0.56092558   0.39901802
 C   3.26000033   1.15319070   1.70698090
 C   3.50245071   1.22439697  -0.80294020
 H   2.82545288   2.06792966  -0.94808941
 H   4.49460429   1.62268430  -0.57640404
 O   2.34131980   1.63771226   2.34129362
 C   3.60850983   0.39423317  -2.06136441
 O   2.86593753   0.46897469  -3.01335369
 O   4.66064285  -0.45207932  -1.98332702
 N   4.55856664   1.25445512   2.08919652
 H   5.27778486   0.88226117   1.49400432
 C   4.93372698   2.13249404   3.17099667
 H   4.03010210   2.69317707   3.43579325
 C   5.94655426   3.17375007   2.73920479
 C   5.40655283   1.39117879   4.42228734
 H   5.75478710   2.13118097   5.13971124
 H   6.26098728   0.75769659   4.18110977
 O   6.54716864   3.89099368   3.49642019
 C   4.29160365   0.55269557   5.02603430
 H   3.90676756  -0.14764533   4.28230185
 H   3.45401526   1.20676742   5.29147037
 C   4.72941914  -0.25658670   6.24216226
 H   3.90318096  -0.88814596   6.57503068
 H   5.54778171  -0.91968640   5.96082132
 N   5.14839849   0.54035904   7.39536632
 H   4.40837968   1.14337768   7.72447807
 N   7.42633503   0.52414510   6.83185198
 H   8.29925257   0.98375031   7.03895005
 H   7.44351732  -0.46844851   6.99979298
 N   6.57642888   2.37638140   7.89950838
 H   5.71420296   2.76475669   8.27501725
 C   6.36905429   1.20756466   7.42038104
 O   6.07489395   3.25970489   1.39852466
 H   4.65158609  -1.02936959  -2.75802779
 H   6.70733455   3.97084167   1.23132104
