21
conf-34
 N  -5.60656836  -3.04949681  -3.38366349
 H  -5.10625131  -3.26998259  -4.24592810
 H  -5.29123756  -3.69038978  -2.64945182
 H  -6.60474159  -3.20405169  -3.53696281
 C  -5.39711974  -1.64811619  -2.94784144
 H  -5.80702641  -0.99080743  -3.72353108
 C  -3.89875083  -1.37914480  -2.78403434
 C  -6.14038130  -1.37830512  -1.64604110
 H  -5.68188848  -1.99462600  -0.88039597
 H  -5.95486542  -0.34265296  -1.37156776
 O  -3.33218364  -1.34473108  -1.66614203
 C  -7.61327481  -1.65526848  -1.76959046
 C  -8.41055357  -0.87862260  -2.60653331
 H  -7.95592070  -0.05805762  -3.14923814
 C  -8.20106441  -2.71215109  -1.08128796
 H  -7.59533834  -3.32455470  -0.42237303
 C  -9.76914686  -1.14195362  -2.74570528
 H  -10.37057504  -0.52063214  -3.39966530
 C  -9.55789342  -2.99123841  -1.22386706
 H  -9.99524218  -3.82065052  -0.68003653
 C  -10.34638501  -2.20481126  -2.05710341
 H  -11.40391620  -2.41633734  -2.16847453
 N  -3.21802993  -1.21343938  -3.94326489
 H  -3.67669711  -1.37223216  -4.82874234
 C  -1.76399559  -1.20662763  -3.96477404
 H  -1.41532555  -2.19058328  -3.63896350
 C  -1.23849923  -0.15785106  -2.99616401
 C  -1.29113641  -0.90987103  -5.37639826
 H  -0.19492034  -0.92835942  -5.42292305
 H  -1.63400479   0.09442925  -5.64993433
 O  -1.50164558   1.02983291  -3.08318284
 O  -1.86098850  -1.90388513  -6.22717430
 H  -1.64031692  -1.68139454  -7.13548167
 N  -0.51539086  -0.69259494  -1.97364749
 H  -0.02102839  -1.56169994  -2.11496170
 C  -0.02243017   0.12992541  -0.90162350
 H  -0.50987927   1.10039846  -0.99596725
 C   1.49272251   0.26135956  -1.00855534
 C  -0.38280584  -0.48595647   0.45411654
 H   0.10947903   0.07111432   1.25450726
 H   0.00251653  -1.51559412   0.46893379
 O   2.20222976  -0.65237645  -1.38576043
 O  -1.76688671  -0.43358024   0.71290176
 H  -2.22730199  -0.97841684   0.05836836
 N   1.99021558   1.47299295  -0.60236056
 H   1.36169696   2.03114935  -0.04735330
 C   3.37869627   1.53960380  -0.17216870
 H   3.93453893   0.84095874  -0.79157952
 C   3.47915738   1.11257489   1.30241040
 C   3.94004732   2.95340306  -0.36270146
 H   3.83005334   3.21908365  -1.41450487
 H   3.39101496   3.67544858   0.24432422
 O   2.53668910   1.18461042   2.07099057
 C   5.40310492   3.00403666  -0.01863784
 O   6.20025631   2.16733331  -0.38715022
 O   5.72290300   4.04442383   0.75748489
 N   4.70614520   0.66615639   1.67318292
 H   5.46094235   0.66366644   1.00130109
 C   5.02725582   0.46660556   3.06299326
 H   4.16021865   0.80143424   3.63990921
 C   6.19395051   1.35289785   3.48576685
 C   5.29146160  -1.00510363   3.39231280
 H   5.59603076  -1.07511106   4.43728387
 H   6.12730732  -1.36754320   2.78960353
 O   6.79256534   2.11020712   2.76623494
 C   4.06490974  -1.87481836   3.16405537
 H   3.74764304  -1.82055469   2.12345734
 H   3.23475963  -1.49833470   3.76909773
 C   4.32268860  -3.33007022   3.51648302
 H   5.11887275  -3.71888023   2.87679732
 H   4.66623592  -3.40472139   4.55634868
 N   3.11737652  -4.10859611   3.31088923
 H   2.26282703  -3.64520141   3.56613362
 N   4.30950989  -6.11915000   3.43967957
 H   4.20216923  -7.09872076   3.65429863
 H   5.04709141  -5.67227196   3.95839924
 N   2.00550534  -6.19395177   3.48493981
 H   1.18335343  -5.60209481   3.40909668
 C   3.07274996  -5.48527738   3.44893818
 O   6.44890600   1.20354839   4.79860343
 H   6.64172162   3.92035020   1.03570585
 H   7.17955792   1.78827119   5.03555158
