21
conf-961
 N  -5.64638891   3.62783160   1.42504849
 H  -5.82869758   3.86091146   0.45661504
 H  -6.14931958   2.76007966   1.59296314
 C  -4.22774138   3.35994543   1.61327819
 H  -3.65729212   4.17686479   1.16435189
 C  -3.80836019   2.03568631   0.96573275
 C  -3.90815646   3.30631079   3.10758345
 H  -4.46228405   2.46703996   3.53839317
 H  -2.84552526   3.10845778   3.25786555
 O  -4.58553983   1.09717002   0.85382471
 C  -4.29506667   4.58987507   3.84880993
 H  -4.09962339   4.46497862   4.91798796
 H  -5.35795407   4.80180219   3.72109771
 C  -3.53335805   5.79472492   3.38403950
 O  -4.01182818   6.83019579   2.99201983
 O  -2.19337688   5.60616540   3.46214325
 N  -2.51736399   1.95520762   0.57406041
 H  -1.84582941   2.68837580   0.74130571
 C  -1.97628982   0.73204925   0.01484286
 H  -2.34436526  -0.11252914   0.60253811
 C  -0.45953260   0.85059415   0.16269337
 C  -2.43916311   0.54253361  -1.44090271
 H  -2.19241564   1.44959803  -1.99262070
 H  -3.52573041   0.47355867  -1.41719039
 O   0.08092783   1.92793706   0.39050850
 C  -1.82321650  -0.62930057  -2.15612496
 C  -1.99550820  -1.96596898  -1.92209504
 H  -2.61157287  -2.47032692  -1.19046942
 C  -0.88093905  -0.52618510  -3.24019982
 C  -0.52549979  -1.82670793  -3.62247742
 C  -0.32447428   0.57497810  -3.90390816
 H  -0.57392653   1.58700111  -3.60020359
 N  -1.21877774  -2.69236043  -2.80526040
 H  -1.15107832  -3.69163104  -2.82535051
 C   0.91192997  -0.97470485  -5.31134268
 H   1.61252464  -1.12096181  -6.12361929
 C   0.37775007  -2.08017709  -4.65904591
 H   0.64786421  -3.09061285  -4.94339169
 C   0.55377007   0.33223419  -4.94524972
 H   0.99188984   1.16564685  -5.48242678
 N   0.24211099  -0.30543521   0.05626340
 H  -0.17248642  -1.07661323  -0.44946615
 C   1.68918631  -0.29649724   0.19311369
 H   1.91159740   0.47941712   0.93100757
 C   2.33197067   0.06177511  -1.14323464
 C   2.18155628  -1.64066769   0.74122870
 H   1.95640746  -2.41416458  -0.00998977
 O   2.87354598  -0.75867262  -1.87615633
 C   3.66121113  -1.62890285   1.07563291
 H   4.27092743  -1.43226413   0.19456642
 H   3.94081110  -2.59355338   1.50078831
 H   3.84898983  -0.85313179   1.82111097
 O   1.51285472  -1.92609252   1.96638479
 H   0.57890924  -1.73561811   1.83123283
 N   2.25564811   1.36926444  -1.49426531
 H   1.80104655   2.02481400  -0.87440418
 C   3.00114453   1.82699459  -2.64709033
 H   2.75009600   1.18059939  -3.49593890
 C   4.49141159   1.69558484  -2.38606364
 C   2.61756021   3.27216142  -2.97524897
 H   2.91036084   3.90648137  -2.13462895
 H   1.52430196   3.29724546  -3.04312874
 O   5.03441736   1.79114910  -1.31592110
 C   3.20639128   3.79045951  -4.27937180
 H   4.29257195   3.79870340  -4.23612667
 H   2.93145747   3.11239709  -5.09125486
 C   2.70792560   5.18972193  -4.60414645
 H   1.61962409   5.17900394  -4.69035937
 H   2.95431738   5.88130330  -3.79352740
 N   3.20319002   5.73694634  -5.88126191
 H   2.72272010   5.41354491  -6.70811895
 N   5.29191496   6.30830722  -5.01323673
 H   6.28437242   6.32780312  -5.19090501
 H   5.02646681   5.86279963  -4.14718719
 N   4.90037772   6.42300087  -7.32261176
 H   4.17960587   6.62674391  -8.00512171
 H   5.69654254   7.04356210  -7.38539096
 C   4.46205773   6.14935930  -6.06443666
 O   5.17050746   1.49200190  -3.53874475
 H   6.10185321   1.45393123  -3.29053767
 H  -1.78900394   6.43197284   3.16834903
