21
conf-367
 N  -5.01153632   0.79756207   3.71348597
 H  -5.12570231  -0.18522706   3.49177286
 H  -5.52574489   0.98660182   4.56401553
 C  -3.58276118   1.02764148   3.90288978
 H  -3.36026350   2.07838594   3.68820686
 C  -2.91592822   0.14875890   2.82754646
 C  -3.04159801   0.67192663   5.28183948
 H  -3.58991161   1.25404597   6.02809787
 H  -3.25003158  -0.37815858   5.48534576
 O  -3.05428169  -1.10732254   2.85539958
 C  -1.54570615   0.95057111   5.39011747
 H  -1.32859871   2.00131432   5.20765199
 H  -1.01440170   0.36945528   4.62582791
 C  -0.98709124   0.54530788   6.71797267
 O  -1.19716757  -0.54706133   7.21759820
 O  -0.20329393   1.45964238   7.29996925
 N  -2.34653025   0.85290274   1.81764032
 H  -2.06563642   1.80434879   1.98639991
 C  -1.81304526   0.22588933   0.63334473
 H  -1.99321568  -0.84999939   0.72816158
 C  -0.31340572   0.51035470   0.56490992
 C  -2.49318799   0.75043285  -0.63821935
 H  -1.91955175   0.42105302  -1.50785744
 H  -2.42070751   1.84315302  -0.64706250
 O   0.21517171   1.38849506   1.21948686
 C  -3.92404552   0.31252205  -0.78498823
 C  -4.91870934   0.27122540   0.15491534
 H  -4.89913251   0.51651635   1.19354836
 C  -4.53698236  -0.11805044  -2.02238458
 C  -5.88490620  -0.40326909  -1.75309595
 C  -4.04584142  -0.27599967  -3.32311086
 H  -3.01340457  -0.05354789  -3.56174927
 N  -6.09208374  -0.16472615  -0.41552088
 H  -6.97876330  -0.21342797   0.04995739
 C  -6.26110122  -1.00104124  -4.01709363
 H  -6.91261238  -1.34451949  -4.81138095
 C  -6.76983666  -0.84875317  -2.73695596
 H  -7.80663502  -1.06448605  -2.50349077
 C  -4.91270583  -0.71686838  -4.30668163
 H  -4.54977490  -0.84665343  -5.31958863
 N   0.38833588  -0.31716551  -0.27305602
 H  -0.14702478  -0.83123437  -0.94784884
 C   1.75636800   0.00380927  -0.67999793
 H   2.07438739  -0.83132974  -1.31602643
 C   2.67813024   0.05084809   0.54955156
 C   1.83208215   1.29650932  -1.52082500
 H   1.74911304   2.13719495  -0.83518977
 O   3.59692988   0.83876780   0.68447912
 C   3.10141498   1.37464530  -2.35165410
 H   4.00079497   1.35329385  -1.73907198
 H   3.09248976   2.29991189  -2.93400723
 H   3.12429860   0.52874548  -3.04401402
 O   0.70079685   1.37664328  -2.38622985
 H   0.89179932   0.82748812  -3.14887593
 N   2.40938782  -0.89093362   1.48953230
 H   1.53837580  -1.38389496   1.41502591
 C   3.01697789  -0.79301507   2.80248163
 H   2.93466126   0.23663149   3.17394584
 C   4.48497231  -1.15374494   2.68148378
 C   2.27320247  -1.76054557   3.72684590
 H   2.34678263  -2.74768052   3.27162869
 H   1.22034086  -1.46399916   3.70090963
 O   4.90720012  -2.11221558   2.08717388
 C   2.75713026  -1.82142123   5.16328410
 H   3.83198126  -2.03056881   5.19848161
 H   2.61151678  -0.84893288   5.63853838
 C   2.03940243  -2.90039783   5.97285759
 H   2.25683149  -3.89349690   5.56585207
 H   2.40691181  -2.89297323   6.99968049
 N   0.58087613  -2.70363707   6.06209937
 H   0.27197576  -1.98555524   6.71793701
 N  -0.00473499  -3.79385983   4.07284218
 H  -0.76128476  -4.32462480   3.66481266
 H   0.86976553  -4.30002716   4.13461176
 N  -1.60980872  -2.65942370   5.27543117
 H  -1.76291643  -1.97649310   6.01487027
 H  -2.04521487  -2.38694071   4.39929594
 C  -0.32914459  -3.04610911   5.15654954
 O   5.27845866  -0.29620359   3.36102195
 H   6.18245141  -0.60363874   3.21904718
 H   0.10105881   1.07763088   8.13663240
