21
conf-553
 N  -6.84795604   1.58292286   5.76567538
 H  -6.82998794   2.59723829   5.79529431
 H  -6.50692403   1.27233519   6.66755600
 C  -5.95950838   1.13529209   4.70525114
 H  -5.86812699   0.04566977   4.76611740
 C  -4.55280597   1.75247305   4.79881694
 C  -6.57160137   1.50921846   3.35165994
 H  -6.64253568   2.59495957   3.28706420
 H  -5.94331511   1.15611439   2.53201091
 O  -4.37796494   2.90331131   5.18536724
 C  -7.98712374   0.97396622   3.18328030
 N  -8.10327938  -0.38226480   3.25207677
 H  -9.00441217  -0.76846126   3.02583729
 H  -7.29115883  -0.96910590   3.18811106
 O  -8.94832980   1.70980517   3.04038645
 N  -3.53981627   0.94533324   4.39030863
 H  -3.75047583   0.07424401   3.92912924
 C  -2.19213888   1.44631002   4.17384819
 H  -2.21798880   2.53271423   4.24390223
 C  -1.78458060   1.03476722   2.76917114
 C  -1.18858927   0.89799344   5.21273823
 H  -1.30650059  -0.19045191   5.20588783
 O  -1.96746785  -0.10395657   2.35795124
 C  -1.52287293   1.37567285   6.63160925
 H  -0.86577170   0.83826652   7.32260204
 H  -2.54112798   1.06618120   6.88381150
 C   0.26283748   1.21999465   4.83765717
 H   0.39363756   2.28795106   4.63042305
 H   0.93305867   0.95440805   5.65847209
 H   0.58834149   0.67032529   3.95379396
 C  -1.37125753   2.87539904   6.85606980
 H  -1.59798778   3.13020306   7.89303163
 H  -0.35080467   3.20661694   6.64816559
 H  -2.05300288   3.44179486   6.21712622
 N  -1.20553176   1.99475783   2.00084484
 H  -0.77531470   2.77513469   2.46849351
 C  -0.64340692   1.64418113   0.70665769
 H  -1.40991465   1.08066789   0.17139556
 C   0.59625560   0.73908974   0.89254735
 C  -0.23150419   2.90031515  -0.03935238
 H   0.08448897   2.65354381  -1.05498670
 H  -1.05975873   3.60656004  -0.09036001
 H   0.61373300   3.36126370   0.47308450
 O   1.52828566   1.04155357   1.67463421
 N   0.60703752  -0.35823920   0.08497348
 H  -0.20723463  -0.59215535  -0.46139724
 C   1.60270718  -1.39213217   0.26769136
 H   2.10604196  -1.18337683   1.21276606
 C   2.61966544  -1.28527587  -0.85956948
 C   0.93437714  -2.75140582   0.34723022
 H   1.71033714  -3.52366436   0.36060648
 O   2.71851677  -2.12089940  -1.75069267
 C   0.07051558  -2.83732681   1.58775342
 H   0.67865381  -2.69360975   2.48421298
 H  -0.40669998  -3.81711378   1.64317165
 H  -0.70955630  -2.07582623   1.56610821
 O   0.09274822  -2.92924487  -0.78363403
 H   0.68743288  -3.00257483  -1.53881032
 N   3.37683354  -0.16589669  -0.83839034
 H   3.29905406   0.52644743  -0.10629570
 C   4.41966512   0.00384415  -1.82225283
 H   4.83349740  -0.97794654  -2.06721401
 C   5.49092071   0.92940902  -1.24585977
 C   3.87041324   0.58087288  -3.13804531
 H   3.43649869   1.57480298  -2.95606040
 H   3.09452561  -0.08816481  -3.49776676
 O   5.23714619   1.74221325  -0.37951123
 O   4.88443702   0.62644075  -4.12178657
 H   5.40714743   1.43182884  -4.00224757
 N   6.73282177   0.78528198  -1.79398552
 H   6.77711937   0.27679385  -2.66390837
 C   7.67862342   1.85679746  -1.65729880
 H   7.49462717   2.33284183  -0.69307787
 H   8.69262332   1.45480598  -1.64907640
 C   7.55604310   2.88531727  -2.78122448
 O   6.74124317   2.76910900  -3.70373896
 N   8.37832124   3.94829344  -2.69891341
 H   9.14984382   3.94866565  -2.04704149
 C   8.46905252   4.91279631  -3.77620751
 H   8.16678977   4.43020944  -4.70971801
 C   9.91642964   5.34004684  -3.88704084
 C   7.57570657   6.14082704  -3.56352390
 H   7.86615667   6.65621974  -2.64555305
 H   7.75989881   6.82786192  -4.39063431
 O   10.76878667   5.11464396  -3.06576185
 C   6.09887572   5.77974570  -3.52627562
 H   5.87394300   5.15612689  -4.39362929
 H   5.88024110   5.17600519  -2.64898236
 C   5.20819400   7.01189199  -3.51031351
 H   5.39156536   7.61916947  -4.40236349
 H   5.47181933   7.62988469  -2.64533714
 C   3.73066359   6.68136071  -3.42312740
 H   3.56880853   6.01440856  -2.57186899
 H   3.15068783   7.58638800  -3.23451754
 N   3.22162913   6.02156538  -4.65284697
 H   2.24178936   5.75133390  -4.56754141
 H   3.75447314   5.17745105  -4.85792722
 H   3.30859612   6.63376316  -5.46384528
 O   10.14515555   6.03257476  -5.01923409
 H   11.07895847   6.27780361  -4.99949326
