21
conf-535
 N  -7.83202416   2.72812699   2.31916324
 H  -8.74275871   2.55505373   1.91260777
 H  -7.37970653   3.47050659   1.79472817
 C  -7.02627207   1.53589999   2.18794000
 H  -7.35691001   0.78939489   2.91961339
 C  -5.59196503   1.95000193   2.48655942
 C  -7.05988126   0.90260737   0.78623949
 H  -6.76256837   1.65926479   0.05418706
 H  -6.34352194   0.08394224   0.70467208
 O  -5.14954638   3.00168899   2.03269365
 C  -8.44411794   0.39622182   0.39847818
 N  -8.45176245  -0.62088210  -0.50018006
 H  -9.34162008  -0.97753902  -0.80029691
 H  -7.60802244  -1.01766578  -0.86871481
 O  -9.46881566   0.89325200   0.83417127
 N  -4.84419153   1.10397108   3.22596814
 H  -5.19725223   0.18976890   3.45435841
 C  -3.42606233   1.36406386   3.46876660
 H  -3.33942331   2.44096370   3.62427558
 C  -2.65374851   0.96824739   2.20030102
 C  -2.90397182   0.63224772   4.71253851
 H  -2.94473445  -0.43892135   4.49077248
 O  -2.11620798  -0.12947787   2.06078606
 C  -3.77672552   0.91350796   5.93587987
 H  -4.82803008   0.79571363   5.67280556
 H  -3.64600415   1.96659263   6.20829500
 C  -1.45411266   1.04909253   4.97927809
 H  -1.41847444   2.11971142   5.19898425
 H  -1.03543506   0.51304703   5.83236428
 H  -0.82716710   0.85731990   4.11039747
 C  -3.46970359   0.02258797   7.13160926
 H  -4.14685548   0.24268754   7.95916432
 H  -3.58994918  -1.03414356   6.87568669
 H  -2.44963063   0.16031001   7.49436809
 N  -2.63031338   1.91055542   1.22713810
 H  -3.26581419   2.69456614   1.32860565
 C  -2.20248689   1.56378192  -0.12406980
 H  -2.53401378   0.53797226  -0.32008910
 C  -0.66954405   1.59383252  -0.19675489
 C  -2.82143752   2.52370684  -1.12255117
 H  -2.54038898   2.24641915  -2.14093296
 H  -3.91083559   2.48705770  -1.03466417
 H  -2.47892565   3.54105743  -0.93227891
 O  -0.04644663   2.58262320  -0.58105123
 N  -0.03923044   0.45479125   0.18246631
 H  -0.56302461  -0.22309904   0.72728335
 C   1.41311157   0.42888278   0.26523374
 H   1.73537855   1.39672467   0.66281621
 C   1.98967078   0.22861474  -1.13976507
 C   1.87301740  -0.67102373   1.21502590
 H   1.57666663  -1.64094614   0.79459993
 O   2.28989016  -0.88240127  -1.58415171
 C   3.36877094  -0.63220709   1.46648372
 H   3.92306710  -0.79236907   0.54284171
 H   3.64709872  -1.40707890   2.18221612
 H   3.63855417   0.34175870   1.87874506
 O   1.19135881  -0.44012399   2.45104737
 H   1.46762686  -1.12564016   3.06271601
 N   2.16237766   1.35673581  -1.86288475
 H   1.69398031   2.19021090  -1.52535099
 C   2.38607682   1.26145000  -3.29676991
 H   1.94321610   0.31645279  -3.63079161
 C   3.88645641   1.24649835  -3.59399391
 C   1.71294560   2.42513180  -3.98942941
 H   1.89403714   2.36459796  -5.06705278
 H   2.15126514   3.36151892  -3.62636133
 O   4.44528679   2.13160261  -4.24333469
 O   0.32103426   2.33227810  -3.68309614
 H  -0.07435183   3.18447608  -3.87667360
 N   4.56722933   0.20375254  -3.08200412
 H   4.05864445  -0.52338985  -2.59084415
 C   5.98727958   0.06619277  -3.30826930
 H   6.42450779   1.06570658  -3.25930289
 H   6.42473508  -0.55790342  -2.53084480
 C   6.30583717  -0.58013740  -4.65309295
 O   6.79930224  -1.69347743  -4.74773888
 N   5.95871203   0.16904145  -5.73229618
 H   5.60539388   1.10956466  -5.60424291
 C   6.28717741  -0.27240897  -7.06538706
 H   6.94443924  -1.13977374  -6.96051828
 C   7.03165806   0.81914609  -7.80560738
 C   5.05071709  -0.68765448  -7.87114401
 H   4.36157872   0.15835829  -7.93010603
 H   5.36800037  -0.91550909  -8.88986852
 O   7.07507793   1.97780775  -7.48729997
 C   4.34958780  -1.89971162  -7.27466646
 H   5.07825616  -2.71281935  -7.19606396
 H   4.02282620  -1.67854797  -6.25792742
 C   3.15069211  -2.33662173  -8.09931259
 H   3.47385895  -2.61925754  -9.10564793
 H   2.47115671  -1.48557688  -8.21205587
 C   2.37401769  -3.48161026  -7.47848773
 H   2.10892567  -3.21110789  -6.45260459
 H   1.43906267  -3.63957525  -8.01884754
 N   3.14583972  -4.75093777  -7.45526352
 H   2.62801915  -5.50762901  -7.00785290
 H   4.01924461  -4.63683462  -6.94233460
 H   3.38886452  -5.05298339  -8.39855876
 O   7.63343421   0.33718713  -8.91250429
 H   8.06044037   1.09353915  -9.33376965
