21
conf-879
 N  -7.13515505   1.03145363   5.71772813
 H  -6.30438396   0.51392385   5.98009803
 H  -7.92984412   0.50283821   6.06224556
 C  -7.24185885   1.10160788   4.26447832
 H  -7.13389119   0.11468355   3.78122636
 C  -6.10240300   2.00761417   3.78944776
 C  -8.57876471   1.71239794   3.86661684
 H  -8.71339698   2.64167497   4.42226105
 H  -8.59274673   1.97251674   2.80662752
 O  -6.23710977   3.21641254   3.64301343
 C  -9.74913100   0.79639777   4.18036174
 N  -10.85411461   0.99994293   3.42025582
 H  -11.66128189   0.42899644   3.59814205
 H  -10.88632843   1.69160652   2.69491991
 O  -9.70885098  -0.03695631   5.07059432
 N  -4.90601015   1.38227400   3.63022556
 H  -4.86191335   0.37549932   3.60861037
 C  -3.76933818   2.06058176   3.02530131
 H  -4.11544316   3.01605487   2.62962801
 C  -3.27688904   1.15855802   1.90767195
 C  -2.64254876   2.33933960   4.04440195
 H  -2.38057176   1.37404892   4.49305096
 O  -3.12326530  -0.04811133   2.10907427
 C  -3.14727969   3.27969595   5.14123499
 H  -4.14927543   2.97460767   5.44700670
 H  -3.25998504   4.27501628   4.69513252
 C  -1.40239607   2.93196913   3.36859117
 H  -1.67744049   3.82234629   2.79149019
 H  -0.66918374   3.24376982   4.11429813
 H  -0.91232321   2.22182118   2.70117311
 C  -2.24649606   3.34215850   6.36702737
 H  -2.64868842   4.03819151   7.10549623
 H  -2.17339012   2.35804584   6.83857158
 H  -1.23489692   3.66573530   6.11986708
 N  -3.00033686   1.73256079   0.71610352
 H  -2.91220501   2.73508629   0.68524462
 C  -2.28234767   0.99018943  -0.31889413
 H  -2.77263158   0.01844558  -0.41004261
 C  -0.83943264   0.78451996   0.12483096
 C  -2.34130316   1.76886561  -1.61965657
 H  -1.81177230   1.23786078  -2.41437445
 H  -3.38098423   1.90737064  -1.92198690
 H  -1.87494072   2.74565981  -1.48701534
 O  -0.12622242   1.74022157   0.43375915
 N  -0.42099542  -0.50009342   0.18519413
 H  -1.03516063  -1.24964082  -0.08958269
 C   0.79917209  -0.88282309   0.86305170
 H   1.41046417   0.01414597   0.95678298
 C   1.45711923  -1.96547181   0.01898059
 C   0.49925634  -1.42792416   2.27776106
 H  -0.06421529  -2.36300213   2.15790870
 O   0.81940457  -2.96129044  -0.30904054
 C   1.75601968  -1.65499212   3.08851879
 H   2.42612562  -2.36423925   2.59318615
 H   1.49528212  -2.04163798   4.07437631
 H   2.27518328  -0.70134790   3.21139063
 O  -0.28821781  -0.48452176   2.99993830
 H  -1.17569544  -0.49731089   2.60551843
 N   2.74939315  -1.77739216  -0.31034262
 H   3.26026550  -0.94751182  -0.05348599
 C   3.47297347  -2.71390907  -1.13944324
 H   3.28504891  -3.72659064  -0.77283177
 C   4.95716983  -2.34532638  -1.01119752
 C   3.00731442  -2.66400494  -2.58697754
 H   1.94754342  -2.92920116  -2.60422542
 H   3.56535269  -3.40345937  -3.17725131
 O   5.32848174  -1.29633297  -0.52395616
 O   3.22687903  -1.33810308  -3.05420483
 H   2.83598678  -1.25577887  -3.92739971
 N   5.82840942  -3.24564311  -1.50735416
 H   5.56641428  -4.16017496  -1.83559001
 C   7.24299739  -3.00259093  -1.40549744
 H   7.52593530  -2.10663705  -1.96383541
 H   7.54011495  -2.81821014  -0.36807970
 C   7.95662675  -4.23471963  -1.95623947
 O   7.34571417  -5.22859051  -2.31341892
 N   9.30484862  -4.13862336  -2.01027054
 H   9.77723477  -3.36216851  -1.57622615
 C   10.09133850  -5.28276652  -2.42883756
 H   9.65670941  -6.18199949  -1.98468721
 C   11.51955424  -5.19252348  -1.93986904
 C   10.07545391  -5.49946647  -3.95122204
 H   10.59376116  -6.44033866  -4.15196473
 H   9.03110395  -5.63526126  -4.23527867
 O   12.30670059  -6.10039923  -2.01481596
 C   10.70475590  -4.38221559  -4.76468802
 H   10.23565218  -3.42926654  -4.51884198
 H   11.76390089  -4.28453551  -4.51050973
 C   10.56657760  -4.63060641  -6.25583796
 H   9.50864959  -4.73222301  -6.51289430
 H   11.05328705  -5.57396610  -6.51728063
 C   11.16976971  -3.52049476  -7.08647779
 H   10.68404469  -2.57663209  -6.82747611
 H   12.22744836  -3.41790655  -6.83238480
 N   11.03230469  -3.76412124  -8.54412920
 H   11.44354314  -3.01609294  -9.10338328
 H   10.05115484  -3.84213717  -8.80969015
 H   11.48935149  -4.63502367  -8.81222616
 O   11.84196981  -3.98139086  -1.43257013
 H   12.76374780  -4.03138000  -1.15066848
