21
conf-962
 N  -8.66624794   2.12284616   5.22664206
 H  -9.66774868   2.24638987   5.14747615
 H  -8.25773723   2.98606214   5.56966232
 C  -8.12193125   1.84747311   3.91833070
 H  -8.36758043   0.81587954   3.63887600
 C  -6.60428006   1.99819339   4.01508843
 C  -8.63175808   2.78232610   2.80597197
 H  -8.44706089   3.81796665   3.10128960
 H  -8.08889308   2.61268073   1.87461452
 O  -6.09490055   2.90037993   4.66679364
 C  -10.12691726   2.63007921   2.55165909
 N  -10.53276524   2.95371479   1.29740197
 H  -11.51226198   2.88250106   1.08624632
 H  -9.89096033   3.24772377   0.58551153
 O  -10.90538705   2.28161215   3.42340072
 N  -5.87133112   1.11555543   3.29796808
 H  -6.28978806   0.49128297   2.62275069
 C  -4.43692950   1.28612866   3.17145531
 H  -4.23333823   2.35758520   3.09135108
 C  -4.03386490   0.58420027   1.87813793
 C  -3.68501529   0.76835560   4.42026938
 H  -4.26942772   1.16882582   5.25543154
 O  -4.76317490  -0.21610417   1.31733603
 C  -2.26884573   1.32716898   4.56170197
 H  -1.60078800   0.86324510   3.82963046
 H  -1.90283225   0.99890473   5.54005156
 C  -3.66548234  -0.75713290   4.49695635
 H  -3.04194982  -1.16849123   3.69955248
 H  -3.25339856  -1.08294555   5.45439963
 H  -4.67115432  -1.17226536   4.39188692
 C  -2.18054340   2.84457432   4.48257936
 H  -1.23408982   3.20358536   4.89010970
 H  -2.24958851   3.20034560   3.44913312
 H  -2.99359178   3.30992103   5.05090993
 N  -2.79341090   0.87799572   1.43449397
 H  -2.17073970   1.49703408   1.92255106
 C  -2.17247955   0.18047078   0.33627894
 H  -2.36892071  -0.89211311   0.44015235
 C  -0.67214467   0.46569869   0.48813425
 C  -2.70920481   0.64370880  -1.01510605
 H  -2.22328760   0.09885629  -1.82630498
 H  -3.78196619   0.46010984  -1.05351346
 H  -2.53040990   1.71298560  -1.15106551
 O  -0.25991485   1.33136602   1.24307972
 N   0.13440101  -0.28178128  -0.29653796
 H  -0.23791552  -1.02360762  -0.86515846
 C   1.56588892  -0.11249224  -0.33967637
 H   1.79767504   0.89235916   0.00830187
 C   2.04160727  -0.33281688  -1.76652395
 C   2.31236151  -1.12762790   0.56370068
 H   3.38506406  -1.06010345   0.32717670
 O   1.52979689  -1.16363169  -2.50582684
 C   2.08452262  -0.84821212   2.03152124
 H   2.46931087   0.13730653   2.31093420
 H   2.58281555  -1.61044848   2.62948016
 H   1.01916471  -0.87638697   2.25967930
 O   1.84343609  -2.44648397   0.32642799
 H   2.01794680  -2.67440293  -0.59384052
 N   3.12901155   0.41046110  -2.13738036
 H   3.62344891   0.87744933  -1.39640900
 C   3.98500932  -0.06423587  -3.21619825
 H   3.34290055  -0.47351708  -3.99600561
 C   4.92456676  -1.13081179  -2.66321427
 C   4.84686351   1.07034039  -3.75220530
 H   5.22069067   1.66008989  -2.90950025
 H   4.26028056   1.71850565  -4.40407136
 O   5.79935741  -0.82872566  -1.84138597
 O   5.94710260   0.55807865  -4.50012811
 H   6.56896547   0.23795597  -3.83714150
 N   4.70735474  -2.38733492  -3.12117543
 H   4.10976795  -2.50289735  -3.92889113
 C   5.65000011  -3.45346957  -2.85614649
 H   6.38086589  -3.08904434  -2.13561076
 H   5.12299590  -4.30948192  -2.43532440
 C   6.26252399  -3.87941515  -4.18386102
 O   5.54453727  -4.25030567  -5.10166870
 N   7.60738802  -3.76361542  -4.29226881
 H   8.15491955  -3.44771768  -3.50941869
 C   8.27262396  -3.97938302  -5.55944470
 H   7.59808913  -4.56832460  -6.18462510
 C   9.55043052  -4.77274246  -5.38300773
 C   8.59764551  -2.66947478  -6.29153059
 H   9.20862848  -2.03332838  -5.64964604
 H   9.20464584  -2.92301960  -7.16476747
 O   10.01649435  -5.51154760  -6.20920326
 C   7.34928126  -1.92488845  -6.74053804
 H   6.76641588  -2.57465773  -7.40207622
 H   6.70565383  -1.70498315  -5.88941876
 C   7.67011262  -0.62844419  -7.46256479
 H   8.32528129  -0.82954967  -8.31410342
 H   8.21342349   0.03809939  -6.78333797
 C   6.42799514   0.08002380  -7.95597532
 H   5.86690190  -0.59613843  -8.60508478
 H   5.79114269   0.32276962  -7.10470310
 N   6.74767798   1.32475995  -8.69707623
 H   5.91084441   1.79249424  -9.04686905
 H   7.34685758   1.12706561  -9.49763648
 H   7.24362495   1.98626005  -8.10115236
 O   10.15412624  -4.51385451  -4.19888544
 H   10.96526958  -5.03744295  -4.17914040
