97
99
N         -3.97548       -0.15625       -5.45030
H         -3.06263       -0.21685       -5.93852
H         -4.56783        0.55084       -5.89220
H         -4.40232       -1.10411       -5.50993
C         -3.77887        0.06609       -3.96422
H         -2.95116        0.76560       -3.83971
C         -3.38924       -1.35125       -3.50758
C         -5.07856        0.60472       -3.32584
H         -5.29488        1.55677       -3.83714
O         -3.95080       -2.30713       -4.05970
C         -4.85894        0.92484       -1.83206
H         -4.42455        0.05072       -1.33078
H         -5.84827        1.07069       -1.38402
C         -6.27898       -0.33407       -3.51868
H         -6.13496       -1.28205       -2.99432
H         -7.17785        0.14555       -3.12141
H         -6.48089       -0.56829       -4.57100
C         -4.00166        2.16597       -1.56930
H         -3.92846        2.35248       -0.49315
H         -2.98389        2.05126       -1.95239
H         -4.45041        3.05462       -2.03002
N         -2.43481       -1.43282       -2.58210
H         -1.94699       -0.57733       -2.29874
C         -1.76521       -2.69333       -2.31876
H         -2.48988       -3.49240       -2.49193
C         -1.29961       -2.67154       -0.85661
C         -0.53729       -2.87768       -3.28058
H         -0.28495       -3.94333       -3.31490
H          0.32791       -2.36690       -2.84741
O         -1.51724       -1.69660       -0.14274
C         -0.80021       -2.37077       -4.67973
C         -1.37115       -3.19548       -5.65722
H         -1.60036       -4.22939       -5.41502
C         -0.52774       -1.03594       -5.00583
H         -0.10861       -0.37544       -4.25370
C         -1.66373       -2.70602       -6.92944
H         -2.09784       -3.36557       -7.67477
C         -0.81568       -0.53682       -6.28133
H         -0.56180        0.49164       -6.52647
C         -1.38497       -1.37323       -7.25008
H         -1.58204       -0.99869       -8.25099
N         -0.57270       -3.74086       -0.43126
H         -0.23863       -4.37911       -1.14274
C          0.35741       -3.53669        0.68640
H         -0.22636       -3.20315        1.54899
C          1.34120       -2.43488        0.24664
C          1.09083       -4.84696        1.02469
H          1.62443       -5.15591        0.11362
O          1.85447       -2.47242       -0.87398
C          2.13167       -4.61525        2.12759
H          1.65669       -4.24411        3.04427
H          2.63584       -5.55482        2.37334
H          2.89696       -3.89330        1.82685
C          0.09926       -5.94471        1.42767
H         -0.43314       -5.66596        2.34495
H         -0.65022       -6.12939        0.65203
H          0.62819       -6.88371        1.61993
N          1.55384       -1.43410        1.12576
H          1.17004       -1.45063        2.06502
C          2.41245       -0.30412        0.83694
H          3.18863       -0.63740        0.14181
C          3.01175        0.15206        2.17595
C          1.62948        0.87982        0.20595
H          0.97601        1.30331        0.97943
H          2.35970        1.65160       -0.07180
O          2.43979       -0.10900        3.23412
C          0.79050        0.43664       -0.99385
H          0.11147       -0.35396       -0.67245
H          1.42735       -0.00424       -1.76947
C         -0.10476        1.45170       -1.66843
N          0.05968        2.75543       -1.37202
H          0.75106        3.07391       -0.71000
H         -0.53959        3.44123       -1.81069
O         -0.96742        1.08037       -2.48561
N          4.13938        0.88075        2.08273
H          4.55230        1.11694        1.18609
C          4.76022        1.53870        3.22136
H          3.98425        2.01853        3.82740
C          5.71210        2.58151        2.65801
C          5.53811        0.55493        4.13045
H          4.83581       -0.24939        4.36879
H          5.75955        1.07283        5.06910
O          6.31138        3.28521        3.59874
C          6.83688       -0.04184        3.54566
H          6.97119       -1.02149        4.01637
H          6.70099       -0.25116        2.47597
C          8.14543        0.77096        3.77116
H          8.92154        0.07236        4.10012
H          7.99467        1.46386        4.60692
C          8.70284        1.56218        2.55982
H          9.69149        1.17390        2.28327
H          8.05428        1.44502        1.68983
N          8.77542        3.02357        2.83001
H          9.07801        3.51672        1.99108
H          9.47103        3.21375        3.55118
H          7.28282        3.46150        3.26622
O          5.96028        2.64663        1.45981
