21
conf-204
 N  -7.70453750  -0.14659646  -15.52575983
 H  -7.65920984   0.81072437  -15.15390873
 H  -6.75328569  -0.42386399  -15.88837677
 H  -8.41410397  -0.24759429  -16.24848679
 C  -7.92970698  -1.04207126  -14.38907272
 H  -9.00340409  -1.18715809  -14.21962548
 C  -7.38729699  -0.32191863  -13.14818543
 C  -7.29829465  -2.40093501  -14.65570740
 H  -7.43487315  -3.09314077  -13.82166787
 H  -7.77882880  -2.83680423  -15.53797136
 O  -7.14994208   0.87696098  -13.17579990
 C  -5.79082818  -2.31105147  -14.98090230
 O  -5.07621708  -3.18901513  -14.48380327
 O  -5.42091424  -1.40721948  -15.76909167
 N  -7.24500992  -1.06600442  -12.03700585
 H  -7.40771347  -2.05880524  -12.00631270
 C  -6.78048117  -0.47955026  -10.80045688
 H  -5.92917265   0.17113363  -11.02324016
 C  -6.35958906  -1.65151588  -9.91043288
 C  -7.86623098   0.37574086  -10.12011582
 H  -8.67345344  -0.27632997  -9.78076382
 H  -8.27273913   1.03198896  -10.89317639
 O  -6.76381976  -2.78443427  -10.10613353
 C  -7.32037246   1.19550591  -8.98088177
 C  -7.62711347   0.90854734  -7.65144651
 H  -8.27082397   0.06814540  -7.41602447
 C  -6.46449755   2.26340255  -9.24808541
 H  -6.21738140   2.47866412  -10.28416680
 C  -7.09439885   1.67662801  -6.61728852
 H  -7.34793202   1.46539069  -5.58381046
 C  -5.92618341   3.03571827  -8.22227614
 H  -5.26207050   3.85978013  -8.45643712
 O  -5.75047033   3.45714463  -5.84085604
 H  -5.19017637   4.15714554  -6.18648782
 C  -6.24635252   2.73830787  -6.89758346
 N  -5.56117056  -1.32057240  -8.87435764
 H  -5.22395633  -0.37428610  -8.77325306
 C  -5.13490526  -2.30839812  -7.89301690
 H  -6.00025283  -2.91997727  -7.62687390
 C  -4.62708260  -1.51239984  -6.70791273
 C  -4.02361634  -3.20256476  -8.45595335
 H  -3.17024055  -2.56664982  -8.69119656
 H  -4.39483500  -3.62723677  -9.38969204
 O  -3.69351665  -0.72438777  -6.83663812
 C  -3.62857266  -4.28973254  -7.49724129
 C  -2.73795992  -4.02930027  -6.45066444
 H  -2.32345212  -3.03218412  -6.35236183
 C  -4.15884345  -5.57780268  -7.60058458
 H  -4.84708041  -5.80423107  -8.40487531
 C  -2.38615087  -5.02436000  -5.54497054
 H  -1.69428555  -4.82556942  -4.73468555
 C  -3.81609359  -6.57869299  -6.69376167
 H  -4.24444027  -7.56979500  -6.79896846
 O  -2.54426151  -7.22390574  -4.73293240
 H  -2.98025741  -8.05914341  -4.91995252
 C  -2.92577599  -6.29944734  -5.66241233
 N  -5.28921973  -1.68465469  -5.53913661
 H  -5.89216032  -2.47925001  -5.42101139
 C  -4.84779057  -0.97530699  -4.35004002
 H  -4.47850252  -0.00687113  -4.69467487
 C  -3.72204556  -1.76428619  -3.68766357
 C  -5.98943343  -0.76478525  -3.35248318
 H  -6.82721353  -0.30574209  -3.88389382
 H  -6.30909904  -1.73878587  -2.98060287
 O  -3.94447475  -2.75455339  -2.99944185
 C  -5.54152873   0.12458337  -2.21764406
 C  -5.02394701  -0.43629919  -1.04692791
 H  -4.94958231  -1.51571369  -0.96206709
 C  -5.57146983   1.51744426  -2.34355891
 H  -5.94826749   1.96469098  -3.25683492
 C  -4.57461503   0.38202877  -0.01245009
 H  -4.17573546  -0.07414174   0.88791615
 C  -5.11800027   2.33371228  -1.30701166
 H  -5.15688038   3.41187285  -1.41556791
 C  -4.62157588   1.76795801  -0.13689868
 H  -4.27383570   2.39976778   0.67131283
 N  -2.46727367  -1.31509228  -3.95430544
 H  -2.38857155  -0.41016698  -4.39265147
 C  -1.38181262  -1.65656111  -3.04746638
 H  -1.63498795  -2.61974020  -2.60530901
 C  -1.31276263  -0.59423243  -1.94540839
 C  -0.05515857  -1.71557734  -3.79437531
 H   0.76453779  -1.94557590  -3.10804395
 H  -0.09712882  -2.47728538  -4.57444269
 H   0.13975313  -0.74764190  -4.26034634
 O  -1.51589161   0.58652359  -2.17177786
 N  -0.97461361  -1.05786019  -0.70285418
 H  -0.50334551  -1.94625497  -0.69403534
 C  -0.46542424  -0.10710205   0.27658191
 H  -1.05295847   0.80034292   0.15464885
 C   1.00698402   0.19000878  -0.04650461
 C  -0.64444284  -0.66506322   1.68919454
 H  -1.65953529  -1.07118684   1.74338503
 H   0.03998570  -1.50980530   1.81751018
 O   1.70942953  -0.57430138  -0.68652935
 C  -0.48218383   0.31585201   2.85413003
 H   0.51991814   0.74953176   2.81642203
 C  -1.51187104   1.43693996   2.80147714
 H  -2.52208435   1.01426062   2.85280680
 H  -1.39127067   2.12228356   3.64202484
 H  -1.44214797   2.02493592   1.87882476
 C  -0.59171106  -0.44604241   4.17177970
 H  -1.54247585  -0.97935676   4.22667232
 H  -0.54237952   0.23753435   5.02312894
 H   0.21643393  -1.17436092   4.26870246
 N   1.48077731   1.35423567   0.45951921
 H   0.91516908   1.94594936   1.04245798
 C   2.86668217   1.72972385   0.30062022
 H   3.45392875   0.81529532   0.22162191
 C   3.27707514   2.49401505   1.55831615
 C   3.08919670   2.56068488  -0.96294156
 H   4.14344066   2.82587830  -1.05910663
 H   2.50151116   3.48122319  -0.92923762
 H   2.78887444   1.98712018  -1.84068837
 O   2.45132788   3.03211725   2.28701408
 N   4.60212746   2.55280417   1.79961777
 H   5.25434358   2.24822674   1.09304553
 C   5.14886376   3.41150451   2.83199669
 H   4.32568652   3.97208680   3.26236737
 C   6.15389273   4.36350881   2.20110063
 C   5.87752051   2.61534042   3.92703392
 H   6.48113916   3.30477010   4.52775117
 H   6.58736673   1.94515027   3.43380453
 O   6.95744768   3.98947985   1.36233459
 C   4.96513283   1.80252056   4.82218962
 C   5.28206191   1.01282211   5.88752040
 H   6.24218581   0.79496433   6.34575651
 N   3.59550681   1.73802004   4.65329764
 H   3.04069335   2.22677856   3.94197986
 C   3.11235516   0.91827443   5.58159155
 H   2.07620191   0.65794212   5.66770262
 N   4.10777644   0.46154771   6.35788365
 N   6.15695908   5.63766215   2.69670830
 H   5.62054478   5.78540605   3.53743397
 C   7.40250378   6.39246510   2.66293831
 H   7.73708984   6.42307103   1.62803178
 C   8.46791149   5.66816249   3.51956895
 C   7.16937058   7.81610096   3.18870293
 H   8.14705951   8.30524731   3.30123498
 O   8.18426036   5.15221400   4.62126121
 C   6.30251000   8.63513413   2.25588643
 H   6.79361954   8.76818082   1.28783600
 H   5.34308328   8.14465704   2.09129921
 H   6.11855656   9.61575607   2.69630603
 O   6.50620232   7.77465632   4.45028888
 H   7.09696012   7.33656522   5.07737724
 N   9.71113551   5.63319436   2.94819359
 H   9.95014173   6.31020162   2.23916724
 C   10.85393104   5.11394408   3.66561608
 H   10.60630355   5.08573077   4.73166075
 C   12.00559905   6.08119325   3.43508448
 C   11.24035995   3.66571755   3.26574171
 H   11.96290336   3.35722071   4.03253398
 O   11.93692195   7.00845595   2.64692877
 C   10.02990514   2.73595815   3.34320881
 H   9.34858282   2.92478810   2.51081153
 H   9.47990389   2.89362249   4.27347918
 H   10.34746378   1.69419071   3.29156624
 C   11.91963537   3.57549522   1.89850958
 H   11.26490112   3.96953855   1.11704782
 H   12.13738184   2.53217670   1.65716331
 H   12.85901887   4.13356572   1.87453835
 N   13.11651978   5.80484153   4.17396801
 H   13.25491552   4.85774854   4.50135173
 C   14.39480966   6.34207532   3.80158644
 H   14.37083081   6.70033043   2.75991023
 C   15.38752760   5.13667421   3.90076721
 C   14.88680771   7.47435300   4.69840740
 H   14.91257089   7.14411544   5.73837193
 H   15.91521259   7.69700269   4.40287863
 O   14.86375404   4.06398758   4.28026307
 C   14.02587193   8.72212218   4.57060083
 H   12.99929987   8.50438099   4.85930397
 H   13.99265629   9.02704686   3.51866147
 C   14.56120823   9.86917672   5.40324042
 H   13.99999100   10.78842921   5.20028207
 H   15.60467096   10.05244271   5.14031112
 N   14.47868154   9.51396858   6.83724873
 H   13.63832750   9.01411485   7.08941873
 N   15.80634297   11.31437607   7.50577463
 H   15.92497800   12.04638046   8.18895439
 H   15.82770294   11.62073397   6.54534015
 N   14.61711059   10.06112886   9.09407945
 H   15.25842077   10.41856474   9.78834456
 H   14.30527392   9.11814528   9.29196115
 C   14.96082540   10.30716571   7.80294732
 O   16.55891531   5.35184263   3.58959044
 H   4.01701596  -0.18173789   7.14481433
