21
conf-102
 N  -3.35111109   1.08776412  -8.69886038
 H  -4.04599311   1.80150366  -8.46953853
 H  -2.43826480   1.45972623  -8.42828556
 H  -3.35516677   0.94584532  -9.70939774
 C  -3.63874166  -0.17233938  -7.97373881
 H  -4.61392462  -0.53513462  -8.29550312
 C  -3.68492908   0.08351835  -6.45242028
 C  -2.55551808  -1.22456616  -8.25241090
 H  -1.69173736  -0.92726786  -7.64523759
 H  -2.24398993  -1.15996623  -9.29398804
 O  -2.73661847   0.68604631  -5.89178067
 C  -2.92986528  -2.64816532  -7.96749335
 C  -2.57568070  -3.80340794  -8.59203382
 H  -1.96881716  -3.92173758  -9.47669869
 N  -3.67645790  -3.05580404  -6.89064378
 H  -4.15467724  -2.44279548  -6.23771865
 C  -3.75366222  -4.40100719  -6.92384414
 H  -4.27084809  -4.95304310  -6.15108455
 N  -3.09612116  -4.90157639  -7.93941194
 N  -4.76194804  -0.49164966  -5.81752186
 H  -5.61278541  -0.58682782  -6.35643088
 C  -4.93032561  -0.39182633  -4.37530504
 H  -4.62389784   0.61606814  -4.08017136
 C  -4.00998948  -1.42822550  -3.69202700
 C  -6.40335377  -0.61451762  -4.01750931
 H  -6.71226636  -1.56829333  -4.45998213
 O  -4.23133556  -2.66462403  -3.69594069
 C  -6.62330526  -0.64616922  -2.51847784
 H  -6.01595874  -1.43631942  -2.07164336
 H  -7.67558724  -0.83359966  -2.30045661
 H  -6.32884809   0.31191878  -2.08683926
 O  -7.20876949   0.38067411  -4.63687039
 H  -7.12952708   1.18357447  -4.11557517
 N  -2.93754670  -0.83459371  -3.10849144
 H  -2.75185309   0.11926526  -3.37439446
 C  -1.82344462  -1.57745665  -2.58189531
 H  -2.15307227  -2.61675931  -2.49922066
 C  -1.48507763  -1.03713210  -1.19437872
 C  -0.58752839  -1.47059324  -3.47804611
 H   0.22868666  -2.02545340  -3.01456635
 H  -0.26799338  -0.42303245  -3.50692252
 O  -1.72114136   0.11356262  -0.86094949
 C  -0.78527398  -1.95851797  -4.91186722
 H  -1.60925326  -1.38322583  -5.34724161
 C   0.45588920  -1.65517841  -5.73781943
 H   1.33675378  -2.12265068  -5.29167717
 H   0.62678581  -0.57760657  -5.78712919
 H   0.35545749  -2.03704500  -6.75784179
 C  -1.13443569  -3.43960765  -4.94062603
 H  -0.34053743  -4.02046965  -4.46665632
 H  -1.25092405  -3.79732970  -5.96776417
 H  -2.07392244  -3.62365565  -4.41397216
 N  -0.87650710  -1.92881877  -0.35265906
 H  -0.45503228  -2.72884885  -0.79103177
 C  -0.11137917  -1.42353434   0.77745072
 H  -0.71227702  -0.64178901   1.24276570
 C   1.20320573  -0.82450113   0.26371108
 C   0.17278108  -2.55059211   1.75887427
 H   0.73561113  -2.18537307   2.62194836
 H   0.76185630  -3.33101327   1.27120606
 H  -0.76363266  -2.98712513   2.10855134
 O   1.76654026  -1.26395779  -0.72737704
 N   1.68943612   0.20768173   1.00226633
 H   1.31444195   0.39686545   1.91887686
 C   2.99459568   0.77798277   0.74350014
 H   3.50944737   0.10523349   0.05893633
 C   3.70980232   0.87028891   2.08851557
 C   2.88746745   2.17686346   0.11228196
 H   2.33917534   2.81127638   0.81219729
 H   3.89130414   2.59974310   0.01152211
 O   3.11952238   1.26616786   3.08108419
 C   2.19970817   2.15454342  -1.22700365
 C   2.91906948   2.15269973  -2.42213334
 H   4.00057520   2.20762329  -2.40045894
 C   0.80241196   2.10082537  -1.30464100
 H   0.22023678   2.07661550  -0.38907353
 C   2.27449343   2.09054274  -3.65795292
 H   2.83802003   2.08438161  -4.58116097
 C   0.14405503   2.04875898  -2.53233825
 H  -0.93868002   2.00439546  -2.55235736
 O   0.29767737   1.92803622  -4.94666980
 H  -0.64073290   1.74947813  -4.83436621
 C   0.88817925   2.02860765  -3.70934725
 N   5.01492030   0.49528099   2.08718388
 H   5.49929056   0.36355922   1.21154702
 C   5.86871057   0.63865091   3.24962889
 H   5.26629807   1.08111188   4.04501761
 C   7.03748160   1.54501583   2.84922711
 C   6.40325392  -0.72288975   3.70374565
 H   7.03184443  -0.59623140   4.58785923
 H   6.98128410  -1.18606324   2.90382021
 O   7.60908863   1.40506285   1.78194601
 C   5.19437480  -1.61916507   4.09411023
 O   4.60039431  -1.23228204   5.11712263
 O   4.96432666  -2.61219595   3.38102778
 N   7.38658243   2.48632609   3.76214237
 H   6.92602886   2.50568500   4.65644300
 C   8.55570817   3.33467241   3.57576358
 H   8.76365584   3.36179744   2.50579627
 C   9.72930424   2.69842050   4.29633871
 C   8.28173623   4.72987122   4.11751835
 H   8.07096331   4.65334853   5.18675583
 H   7.37558154   5.09524778   3.63027635
 O   9.97318806   2.84451700   5.46951824
 C   9.42023616   5.70967066   3.87903376
 H   10.31011979   5.38340375   4.42358608
 H   9.68260011   5.70603347   2.81692672
 C   9.05298837   7.12196081   4.29870494
 H   8.16121927   7.44838613   3.75651558
 H   8.80415966   7.13490173   5.36305791
 C   10.16901169   8.11099300   4.04561576
 H   10.41287048   8.11025826   2.98055201
 H   11.06411659   7.78453927   4.58044218
 N   9.81267589   9.48760643   4.47090485
 H   10.56781912   10.15340365   4.30390957
 H   9.59279561   9.51544866   5.46592268
 H   8.99105318   9.82293314   3.96916839
 O   10.46164031   1.90969420   3.48514883
 H   11.15162462   1.52382338   4.03992331
