21
conf-472
 N  -6.65540193  -3.43078444  -6.28294327
 H  -7.58843550  -3.16544488  -5.96151841
 H  -6.19100536  -2.58812113  -6.63022844
 H  -6.75415430  -4.09183323  -7.05172949
 C  -5.83981098  -3.99387898  -5.18482577
 H  -6.40339577  -4.77989813  -4.67269689
 C  -5.51113647  -2.87460162  -4.20324176
 C  -4.54217528  -4.58928671  -5.75627457
 H  -3.96683471  -3.77686757  -6.21021304
 H  -4.80977431  -5.28045796  -6.55705954
 O  -5.15239161  -1.76997616  -4.61246474
 C  -3.71953878  -5.33497321  -4.75571290
 C  -3.57104723  -6.67122666  -4.51780982
 H  -3.99107667  -7.49096612  -5.07934379
 N  -3.00251172  -4.72148315  -3.76097013
 H  -2.87356044  -3.72102021  -3.63301379
 C  -2.47547612  -5.68782361  -2.97803382
 H  -1.88012394  -5.44289465  -2.11479502
 N  -2.78392670  -6.89152080  -3.41196733
 N  -5.61446681  -3.15446371  -2.88643500
 H  -5.76078926  -4.10113383  -2.57329442
 C  -5.05665455  -2.23705425  -1.90184908
 H  -5.33403410  -1.23026428  -2.21148639
 C  -3.53971222  -2.35669434  -1.89045945
 C  -5.63290583  -2.54599027  -0.51948142
 H  -5.08137286  -1.95269997   0.21663031
 O  -2.94724590  -3.26011207  -1.25366880
 C  -7.10869625  -2.22547363  -0.43597122
 H  -7.28587665  -1.16239999  -0.62087118
 H  -7.48469033  -2.47866801   0.55648960
 H  -7.66717612  -2.80384019  -1.17221519
 O  -5.47603731  -3.92692845  -0.22869107
 H  -4.52180271  -4.06565265  -0.17946286
 N  -2.87119191  -1.56594048  -2.72177760
 H  -3.36358424  -0.88365547  -3.27707291
 C  -1.41696808  -1.54857061  -2.74000273
 H  -1.08342010  -2.58781683  -2.64576188
 C  -0.91156475  -0.76028994  -1.53171642
 C  -0.92474482  -0.91940443  -4.03444979
 H   0.16496462  -0.83515747  -4.01528083
 H  -1.32013764   0.09555501  -4.07212237
 O  -1.11994875   0.43796708  -1.40246679
 C  -1.34133661  -1.68908712  -5.28898196
 H  -2.41240843  -1.90055582  -5.20837301
 C  -1.11857608  -0.83167572  -6.53187896
 H  -0.06346824  -0.56105395  -6.62449877
 H  -1.70248548   0.08943325  -6.49015090
 H  -1.40736770  -1.37087287  -7.43683288
 C  -0.58039911  -3.00498984  -5.41240421
 H   0.47363475  -2.80303985  -5.62113548
 H  -0.98087014  -3.61572003  -6.22852008
 H  -0.62133183  -3.60003656  -4.49604748
 N  -0.27073498  -1.50492645  -0.59005234
 H   0.15330298  -2.37262273  -0.86901790
 C   0.36616031  -0.83835776   0.53408810
 H  -0.25053780   0.03008346   0.76491928
 C   1.76386150  -0.40516081   0.10584120
 C   0.46062878  -1.79130661   1.71407460
 H   0.86845181  -1.27820354   2.58865221
 H   1.12511241  -2.61997152   1.46331869
 H  -0.52830917  -2.18243022   1.95689623
 O   2.59714856  -1.23257377  -0.23706446
 N   2.00053915   0.93272111   0.10052808
 H   1.33783203   1.52621157   0.56938723
 C   3.37379239   1.41485592   0.03640804
 H   3.93681514   0.67624554  -0.53753523
 C   3.89853264   1.50929837   1.46363582
 C   3.43763810   2.79049179  -0.62332567
 H   2.93557717   2.72683758  -1.58849370
 H   2.86667192   3.47860270   0.00853085
 O   3.36909383   2.29006881   2.26404126
 C   4.85057976   3.28020599  -0.79988143
 C   5.54749239   3.83925004   0.27521208
 H   5.04435866   3.94157876   1.22613560
 C   5.52641367   3.15849459  -2.01463374
 H   5.01517434   2.73610122  -2.86975542
 C   6.86641524   4.25925730   0.15217538
 H   7.39809702   4.69352315   0.99203323
 C   6.85063528   3.57419687  -2.15260002
 H   7.35038351   3.46708386  -3.10931396
 O   8.82050547   4.55022586  -1.13604345
 H   9.15267901   4.40060469  -2.02477699
 C   7.52460285   4.12410271  -1.06414326
 N   4.94576298   0.71889889   1.77320471
 H   5.10678855  -0.12995720   1.22201285
 C   5.40453141   0.62158881   3.15349282
 H   4.52032578   0.56597835   3.79983144
 C   6.22694650   1.86982158   3.52103162
 C   6.26196555  -0.63230379   3.31140491
 H   6.50351784  -0.80875819   4.35911737
 H   7.18591057  -0.49317940   2.74473423
 O   7.44756169   1.90899159   3.45128763
 C   5.48658254  -1.83937264   2.74342730
 O   5.04448318  -2.66409186   3.54840357
 O   5.40636780  -1.87053021   1.48974945
 N   5.51931472   2.94580628   3.94696012
 H   4.52252084   2.97089399   3.78603518
 C   6.24293241   4.14514391   4.29901626
 H   6.97500334   4.35778763   3.50702656
 C   7.04163820   3.90315714   5.57111630
 C   5.31477464   5.34286262   4.47528411
 H   5.90562691   6.17182217   4.86873823
 H   4.56849068   5.09675476   5.23019159
 O   6.78011711   3.12308860   6.44638329
 C   4.64387598   5.78539704   3.18429176
 H   5.40446718   5.87910767   2.39709573
 H   3.94862615   5.01359521   2.84594251
 C   3.91469024   7.10720605   3.34272561
 H   3.12591335   7.00632594   4.09393353
 H   4.61707317   7.85637707   3.72227598
 C   3.31617610   7.63967150   2.05473654
 H   4.09635678   7.67710900   1.28959092
 H   2.97063258   8.66456838   2.20141967
 N   2.18972459   6.81168316   1.55208513
 H   1.80451936   7.17549266   0.67985327
 H   1.43199105   6.76188539   2.23329590
 H   2.49606275   5.85674783   1.37080921
 O   8.10400028   4.74278981   5.62613064
 H   8.54057562   4.55290561   6.46546276
