21
conf-883
 N  -7.24198431   0.20263543  -8.25754025
 H  -7.87762927   0.51241345  -7.51931421
 H  -6.92852312   1.03399675  -8.76489962
 H  -7.75911864  -0.39545591  -8.90158672
 C  -6.06963022  -0.49643157  -7.68889132
 H  -6.41207432  -1.30814594  -7.04148732
 C  -5.23859691   0.49366164  -6.86655089
 C  -5.18428133  -1.07012267  -8.81151014
 H  -4.95718297  -0.25136493  -9.49949811
 H  -5.75976103  -1.81308980  -9.36013501
 O  -4.79491908   1.52601341  -7.40370522
 C  -3.91332325  -1.67621205  -8.30645008
 C  -3.53376358  -2.95480898  -8.02590268
 H  -4.08850946  -3.86587230  -8.19538005
 N  -2.85862886  -0.89055025  -7.90000996
 H  -2.87642634   0.12476228  -7.87818051
 C  -1.90786446  -1.71455229  -7.39801509
 H  -0.98003526  -1.34067102  -6.99823702
 N  -2.27294818  -2.97636190  -7.45986596
 N  -5.01513354   0.12507062  -5.57465458
 H  -5.11470318  -0.85377152  -5.34035646
 C  -3.97016688   0.75483145  -4.78683882
 H  -3.25702140   1.25933686  -5.44616137
 C  -3.26224059  -0.39189846  -4.06210478
 C  -4.55301974   1.78526311  -3.80177988
 H  -3.80311477   2.00141038  -3.03442692
 O  -3.65426458  -1.54835485  -4.13965762
 C  -4.93129148   3.07058567  -4.51589566
 H  -4.03119135   3.58632974  -4.86263671
 H  -5.48527211   3.72968721  -3.84750148
 H  -5.53871538   2.85184489  -5.39837184
 O  -5.65735479   1.23663506  -3.11530923
 H  -6.23065788   0.86394983  -3.79442266
 N  -2.19257492  -0.05611050  -3.31674382
 H  -1.86101660   0.89211993  -3.24017879
 C  -1.51918467  -1.05393563  -2.51151527
 H  -2.28112689  -1.73357517  -2.12410625
 C  -0.84140326  -0.30789570  -1.36947387
 C  -0.52230853  -1.86979928  -3.34027164
 H   0.22815484  -1.18756330  -3.75035004
 H  -1.08014911  -2.28098705  -4.18292137
 O  -0.43369230   0.83957309  -1.50321296
 C   0.18805499  -3.01717148  -2.61396988
 H   0.72543283  -2.60739053  -1.76465204
 C  -0.79860311  -4.07040986  -2.12456780
 H  -1.36180690  -4.47250242  -2.97237363
 H  -1.51684117  -3.67433041  -1.40128649
 H  -0.27373847  -4.89960512  -1.64399208
 C   1.20985014  -3.64708732  -3.55803812
 H   0.70593167  -4.06969505  -4.43034138
 H   1.76099592  -4.44935458  -3.06299595
 H   1.93256050  -2.90939583  -3.91036962
 N  -0.72357060  -0.99768588  -0.20769884
 H  -0.77606555  -2.00051779  -0.26317228
 C   0.06306405  -0.47221072   0.89360386
 H  -0.23654267   0.57039343   1.02692576
 C   1.55226849  -0.51699972   0.55104647
 C  -0.21896807  -1.27956174   2.15464459
 H   0.32917878  -0.87698129   3.00908931
 H   0.08830984  -2.31780644   2.01097427
 H  -1.28524181  -1.25726772   2.38589997
 O   2.04195412  -1.42403999  -0.10898017
 N   2.28218987   0.51428973   1.05378104
 H   1.90065133   1.09042546   1.78742562
 C   3.72546560   0.53971291   0.98484887
 H   4.06364017  -0.43491905   0.62538160
 C   4.22101917   0.79312141   2.40840667
 C   4.23577456   1.65326089   0.05528684
 H   3.79974369   2.59489694   0.39671930
 H   5.31986537   1.74454060   0.17003074
 O   3.56045257   1.49062050   3.17518526
 C   3.91315823   1.41433210  -1.39639510
 C   4.90414992   1.00367091  -2.29122573
 H   5.91836036   0.86928382  -1.93853500
 C   2.61536764   1.58197476  -1.88752451
 H   1.82878924   1.90707601  -1.21962223
 C   4.61823384   0.77377130  -3.63349865
 H   5.39245545   0.46713428  -4.32546995
 C   2.30836562   1.33020389  -3.22391388
 H   1.28728210   1.43605164  -3.57342124
 O   3.09072183   0.71710755  -5.43234381
 H   2.16636108   0.90358099  -5.61599601
 C   3.31990697   0.94388047  -4.10305134
 N   5.42965344   0.27598682   2.72017541
 H   5.75543178  -0.50150452   2.13920579
 C   5.82086569   0.11698406   4.12128116
 H   4.91015326  -0.06110543   4.71424133
 C   6.51061707   1.37991833   4.66071402
 C   6.77226720  -1.07349264   4.24119888
 H   6.95526524  -1.31990726   5.28653647
 H   7.72047036  -0.81119442   3.76538666
 O   7.62382213   1.35572779   5.16380643
 C   6.15470078  -2.28716047   3.51229997
 O   5.79033951  -3.23730376   4.21379488
 O   6.11828077  -2.20447500   2.26251087
 N   5.82144136   2.53925050   4.54703063
 H   4.85292038   2.50170597   4.25648813
 C   6.36931362   3.71564021   5.19103504
 H   7.35946726   3.91845363   4.76764030
 C   6.53400565   3.44189326   6.67592459
 C   5.44811624   4.91753393   4.96979108
 H   4.48837182   4.71125561   5.45139314
 H   5.26683234   4.99280686   3.89432738
 O   5.78797046   2.78328967   7.35143193
 C   6.01562586   6.23275301   5.47961123
 H   6.16698304   6.19121556   6.56044052
 H   7.00282218   6.39161672   5.03465861
 C   5.12132335   7.41026297   5.13879403
 H   4.97026121   7.45720710   4.05693837
 H   4.13778637   7.26844120   5.59452160
 C   5.69437111   8.72779610   5.61148380
 H   6.67116374   8.88045354   5.14625771
 H   5.85662269   8.67974338   6.69088396
 N   4.80996906   9.87675031   5.29433335
 H   5.19659231   10.76471466   5.61600212
 H   3.89578084   9.76352148   5.73098575
 H   4.65860697   9.95380344   4.28913005
 O   7.61060886   4.09119486   7.18071240
 H   7.61751876   3.88427031   8.12235987
