21
conf-197
 N  -7.03353270  -4.46402678  -3.96680141
 H  -7.48364271  -4.05388790  -3.14886624
 H  -6.87790454  -3.70517909  -4.63142213
 H  -7.65060496  -5.16228757  -4.38809057
 C  -5.73714653  -5.05649482  -3.59815955
 H  -5.90238764  -5.85306760  -2.86598756
 C  -4.86193948  -3.98221517  -2.95444984
 C  -5.03073424  -5.66635951  -4.81229269
 H  -4.11272661  -6.14954450  -4.47500704
 H  -4.73647854  -4.87589347  -5.50414540
 O  -5.18062782  -2.79913876  -3.00133739
 C  -5.89737097  -6.63559265  -5.55920985
 C  -6.18503553  -6.76598240  -6.88657131
 H  -5.79505549  -6.18688831  -7.71140163
 N  -6.66094813  -7.59628809  -4.93562800
 H  -6.66056285  -7.81718353  -3.95171210
 C  -7.34881005  -8.26398703  -5.90135298
 H  -8.01487604  -9.07947383  -5.67493633
 N  -7.09483083  -7.78495647  -7.09551997
 N  -3.71238594  -4.41133204  -2.37445816
 H  -3.62463076  -5.39656485  -2.18172332
 C  -2.92129362  -3.50968502  -1.54466179
 H  -3.62015494  -2.79869785  -1.09332094
 C  -1.92885641  -2.76018524  -2.43403911
 C  -2.21459931  -4.27393807  -0.42671993
 H  -1.41692676  -4.88155282  -0.87072129
 O  -0.71187957  -2.96693802  -2.40868120
 C  -1.65477236  -3.33573055   0.62737431
 H  -0.93402081  -2.64428633   0.18770521
 H  -1.16198758  -3.90059045   1.41950900
 H  -2.47548313  -2.76148639   1.06128288
 O  -3.19798353  -5.12323467   0.17185899
 H  -2.77740547  -5.59629957   0.89337835
 N  -2.47637227  -1.86266147  -3.27806358
 H  -3.47803048  -1.71304800  -3.25564255
 C  -1.63707194  -1.00164491  -4.09324579
 H  -0.77300588  -1.60795959  -4.36988858
 C  -1.17155639   0.18226320  -3.23744762
 C  -2.39095308  -0.55413570  -5.33614178
 H  -3.21039507   0.09770740  -5.02348713
 H  -2.83222707  -1.44508480  -5.79026038
 O  -1.69337510   1.28994534  -3.29073665
 C  -1.54807001   0.16860665  -6.39272568
 H  -1.06741682   1.02100016  -5.90351979
 C  -0.47282433  -0.73563586  -6.98472523
 H  -0.93460579  -1.57987164  -7.50545375
 H   0.19745556  -1.13392685  -6.22017441
 H   0.13403880  -0.18558743  -7.70787187
 C  -2.46217999   0.70546496  -7.49168591
 H  -2.98846530  -0.11570520  -7.98434990
 H  -1.88893168   1.24294498  -8.25038029
 H  -3.20570905   1.39246734  -7.08321035
 N  -0.15941005  -0.08944308  -2.38256868
 H   0.18622522  -1.03441793  -2.25166208
 C   0.35142304   0.94090086  -1.50830646
 H   0.30284543   1.88639112  -2.04883452
 C   1.80245978   0.60513409  -1.17671781
 C  -0.48491784   1.06198476  -0.23452599
 H  -0.06935423   1.82980650   0.42022493
 H  -0.48107919   0.10799775   0.29951817
 H  -1.51153758   1.32323904  -0.48362259
 O   2.20709110  -0.53934948  -1.10320520
 N   2.60444585   1.68606012  -0.95612576
 H   2.16422191   2.56421012  -0.74332611
 C   3.93690734   1.50064817  -0.40040771
 H   4.26717086   0.50603797  -0.70398753
 C   3.82860870   1.58963047   1.11745443
 C   4.90273932   2.56907033  -0.92466081
 H   4.90230322   2.50884103  -2.01318037
 H   4.50528770   3.54557186  -0.64167985
 O   3.53632708   2.65145000   1.66260959
 C   6.30117915   2.39477037  -0.38511624
 C   6.66398355   2.98905118   0.82620908
 H   5.93321469   3.58488262   1.36145495
 C   7.25230219   1.60900155  -1.04072342
 H   7.00871743   1.15291948  -1.99220180
 C   7.92983555   2.80093283   1.37461057
 H   8.19977866   3.25638991   2.32091069
 C   8.51881602   1.40251114  -0.49491670
 H   9.23817747   0.78562030  -1.02315702
 O   10.07797954   1.83313209   1.30616380
 H   10.62259506   1.26886949   0.75073330
 C   8.85636746   1.99563423   0.71787119
 N   4.03106886   0.43946290   1.78320410
 H   4.31656629  -0.42561965   1.32754848
 C   4.16014321   0.40992193   3.22022046
 H   3.52745522   1.20209869   3.62310137
 C   5.61389449   0.66351912   3.62454477
 C   3.70782194  -0.95987241   3.72860998
 H   2.67536014  -1.12133998   3.40708124
 H   3.77193899  -1.03248883   4.81578401
 O   6.56444499   0.17107850   3.03072909
 C   4.57902025  -2.07913410   3.10967378
 O   5.03736818  -2.91057166   3.90762940
 O   4.68089347  -2.09512947   1.86595852
 N   5.79039115   1.46464159   4.71546225
 H   4.99563974   1.65561548   5.29714750
 C   7.09101883   1.51023187   5.35806622
 H   7.84362700   1.70844760   4.59038353
 C   7.48036178   0.17733716   5.97853396
 C   7.12892420   2.60677348   6.42065231
 H   8.06500125   2.50970800   6.97548690
 H   6.31696915   2.43659848   7.12891975
 O   8.61846993  -0.16864248   6.16239526
 C   7.03109772   4.00279261   5.82924012
 H   7.84317452   4.13973898   5.10502816
 H   6.09758712   4.11254866   5.27529063
 C   7.11620735   5.09610487   6.87756880
 H   6.30708638   4.97318029   7.60248176
 H   8.05589309   5.00995588   7.43019703
 C   7.02848979   6.48058443   6.27537002
 H   6.09199410   6.56815184   5.71929937
 H   7.84187919   6.60981795   5.55744160
 N   7.09742544   7.55031650   7.30176648
 H   7.03426595   8.48393554   6.89457161
 H   7.97292113   7.50054543   7.82173553
 H   6.33849212   7.45731108   7.97602404
 O   6.40997014  -0.56700328   6.33996697
 H   6.75454967  -1.38641439   6.71242034
