21
conf-14
 N  -5.86351985  -7.34978603  -4.49684118
 H  -6.20565448  -7.58977477  -3.56340524
 H  -6.50936878  -6.67058236  -4.90509305
 H  -5.87049515  -8.19615711  -5.06465798
 C  -4.50449593  -6.74817557  -4.43373809
 H  -3.84471809  -7.40142231  -3.85841818
 C  -4.62896561  -5.40111507  -3.73698140
 C  -3.94684084  -6.56835080  -5.83736429
 H  -4.53700199  -5.79889494  -6.33776150
 H  -4.10981610  -7.49902919  -6.38722224
 O  -5.23813841  -4.47284898  -4.25636875
 C  -2.48937686  -6.21967342  -5.89638461
 C  -1.57300426  -5.85495800  -4.95680685
 H  -1.73864067  -5.65652105  -3.91090250
 N  -1.77747419  -6.21909392  -7.07817597
 H  -2.14974405  -6.44087176  -7.98479740
 C  -0.49121192  -5.89055351  -6.79379936
 H   0.27003711  -5.82435331  -7.55427102
 N  -0.32544030  -5.66219450  -5.51713385
 N  -4.14014652  -5.34376821  -2.46349086
 H  -3.37272335  -5.96368378  -2.24349731
 C  -4.11118778  -4.05988132  -1.77346881
 H  -5.05939740  -3.56075594  -1.97842262
 C  -2.94722973  -3.21025947  -2.32196168
 C  -3.99531422  -4.29287390  -0.25852742
 H  -3.03094576  -4.79161896  -0.08342840
 O  -1.76751514  -3.63516422  -2.32472447
 C  -4.07414642  -3.01984660   0.55895988
 H  -3.24731433  -2.34484854   0.33120924
 H  -4.04624531  -3.27458760   1.61848351
 H  -5.02023719  -2.51499501   0.34725830
 O  -5.07886827  -5.10322190   0.17963493
 H  -5.17238832  -5.81962988  -0.45635758
 N  -3.31243890  -1.97166929  -2.73755445
 H  -4.28549577  -1.73806088  -2.75297200
 C  -2.33288323  -1.00560037  -3.20216794
 H  -1.41032962  -1.56024667  -3.38291824
 C  -1.97726096  -0.03789895  -2.07610535
 C  -2.78145098  -0.36335222  -4.48834999
 H  -2.06046033   0.39760495  -4.78858531
 H  -3.72197737   0.16643023  -4.32949618
 O  -2.10564863   1.17814365  -2.15783667
 C  -2.93918540  -1.40507964  -5.59951563
 H  -3.85069633  -1.97451405  -5.39726975
 C  -3.08197550  -0.69272513  -6.93936203
 H  -2.15725648  -0.15999769  -7.17933248
 H  -3.89694817   0.03516057  -6.92444638
 H  -3.28027552  -1.40145063  -7.74572564
 C  -1.78442883  -2.40142940  -5.64541627
 H  -0.83097685  -1.87141083  -5.72845395
 H  -1.87666091  -3.06728531  -6.50825681
 H  -1.73675553  -3.02911167  -4.75360908
 N  -1.53361691  -0.65532913  -0.93650947
 H  -1.15572331  -1.59171224  -1.03266169
 C  -0.91984988   0.13990939   0.11376374
 H  -1.38770612   1.12437416   0.06949152
 C   0.57707819   0.25852520  -0.17776594
 C  -1.14108227  -0.51213406   1.46921255
 H  -0.71182565   0.09912774   2.26651915
 H  -0.66088719  -1.49277583   1.48382162
 H  -2.21018697  -0.64037770   1.65830480
 O   1.23585760  -0.70552026  -0.53004309
 N   1.09870523   1.50054844  -0.00640829
 H   0.60254098   2.19498152   0.53138262
 C   2.51215234   1.76248515  -0.13949622
 H   3.03396524   0.80303074  -0.13806346
 C   2.91683779   2.62618788   1.06028158
 C   2.83180600   2.51143257  -1.44563411
 H   2.25371746   3.43920212  -1.45115980
 H   3.88981668   2.79174662  -1.43982566
 O   2.10421323   3.30192653   1.66620678
 C   2.53575129   1.70450191  -2.68096773
 C   3.55453031   1.03803644  -3.36420824
 H   4.57459276   1.11363689  -3.00843716
 C   1.23052428   1.59011683  -3.17573536
 H   0.41742560   2.08573489  -2.66098957
 C   3.29826163   0.28140227  -4.50684406
 H   4.09745597  -0.22798757  -5.02997498
 C   0.96352361   0.83458117  -4.31860725
 H  -0.05931554   0.74394156  -4.67894390
 O   1.76842357  -0.56972582  -6.11327386
 H   0.83873637  -0.49236448  -6.33843135
 C   1.99671744   0.18178578  -4.98849854
 N   4.23345139   2.62490909   1.36482960
 H   4.92048330   2.11576458   0.83015064
 C   4.76841888   3.47611519   2.40904357
 H   4.32466976   4.47241813   2.32914381
 C   6.28577665   3.53023588   2.18630225
 C   4.43079224   2.94737884   3.81082823
 H   4.79844236   1.92866893   3.94645762
 H   3.34599306   2.94442994   3.91799552
 O   6.85554358   2.70506372   1.49735643
 C   5.00469483   3.85068194   4.92774872
 O   5.05550577   5.07742235   4.66906436
 O   5.33783981   3.27801562   5.97922109
 N   6.92442891   4.54947273   2.81841555
 H   6.35585802   5.08124271   3.48871776
 C   8.35833824   4.44960760   3.04783518
 H   8.78457430   3.88831106   2.21727189
 C   8.57280095   3.65178501   4.31909754
 C   8.97961266   5.83564131   3.15991125
 H   8.54839816   6.34783182   4.02332794
 H   8.68332049   6.39558374   2.27111097
 O   9.12398662   2.58491376   4.38677411
 C   10.49574958   5.80457081   3.26625143
 H   10.79655714   5.24984478   4.16005570
 H   10.90482029   5.25921555   2.41063049
 C   11.09875903   7.19681572   3.30263260
 H   10.78773605   7.75564007   2.41584179
 H   10.71772174   7.73769926   4.17295540
 C   12.60950492   7.17308276   3.36141770
 H   12.99226025   6.63620555   2.49012453
 H   12.92488382   6.61559739   4.24649140
 N   13.19605656   8.53603615   3.39897551
 H   14.21555156   8.51906248   3.44090959
 H   12.86345296   9.05333435   4.21199598
 H   12.93171608   9.06929075   2.57129694
 O   8.01317708   4.28793900   5.36598675
 H   7.96284313   3.66587292   6.10578964
