21
conf-170
 N  -6.54071257  -1.46844106  -8.00324275
 H  -7.38986429  -1.19675944  -7.50150859
 H  -6.08319840  -0.61281483  -8.32766259
 H  -6.80856012  -2.02350599  -8.81573557
 C  -5.61305127  -2.21758633  -7.12112084
 H  -6.15936055  -3.04006207  -6.65407307
 C  -5.09165855  -1.28198984  -6.03102271
 C  -4.42982127  -2.76215979  -7.92503746
 H  -3.92161863  -1.90762722  -8.37348029
 H  -4.81184819  -3.38947762  -8.73173885
 O  -4.44442287  -0.25824862  -6.30544530
 C  -3.43948115  -3.51837250  -7.09054300
 C  -2.28896954  -3.12094560  -6.48736326
 H  -1.83264068  -2.14278610  -6.56686958
 N  -3.61973960  -4.81744934  -6.65831109
 H  -4.37392569  -5.43596076  -6.91826956
 C  -2.59025378  -5.12803764  -5.82958690
 H  -2.50329947  -6.09804450  -5.37061601
 N  -1.75727926  -4.12181340  -5.69596161
 N  -5.38717035  -1.66618900  -4.76843264
 H  -5.92057775  -2.50013769  -4.60621559
 C  -5.05711349  -0.82505474  -3.63664711
 H  -4.95321781   0.18714407  -4.03206467
 C  -3.73363700  -1.31083414  -3.04412391
 C  -6.17939499  -0.84520775  -2.60674362
 H  -6.26172889  -1.86465893  -2.20686815
 O  -3.67372501  -2.05608524  -2.07253077
 C  -5.94882188   0.14980824  -1.48117114
 H  -5.02497566  -0.07118732  -0.94826339
 H  -6.78102232   0.11424333  -0.77560544
 H  -5.88696275   1.15566104  -1.90070537
 O  -7.37088066  -0.49120763  -3.31766306
 H  -8.10855928  -0.57096231  -2.70893974
 N  -2.62834539  -0.88923099  -3.70506431
 H  -2.74070685  -0.31971721  -4.53069734
 C  -1.30640765  -1.12969433  -3.15235205
 H  -1.33080357  -2.13436231  -2.72369560
 C  -1.00634973  -0.12808914  -2.03548169
 C  -0.24626167  -1.05716688  -4.24519208
 H  -0.36429621  -0.10525568  -4.77550939
 H  -0.45219599  -1.86437108  -4.95745563
 O  -0.95497847   1.07819217  -2.23774624
 C   1.20852572  -1.17255382  -3.78308460
 H   1.42535171  -0.28971395  -3.16015519
 C   1.47484533  -2.43344763  -2.96908674
 H   1.22467382  -3.31984621  -3.55961203
 H   0.91082679  -2.46264353  -2.04012466
 H   2.53340229  -2.48903157  -2.69989779
 C   2.11261856  -1.15360834  -5.01419384
 H   1.96287336  -2.07057070  -5.58591066
 H   3.16772915  -1.08463944  -4.73562615
 H   1.88151767  -0.31044989  -5.67227186
 N  -0.79661300  -0.66347682  -0.80426469
 H  -0.70848834  -1.66118122  -0.73557024
 C  -0.16217073   0.11265941   0.25300859
 H  -0.55227134   1.12736885   0.16337669
 C   1.36592272   0.10582049   0.04485705
 C  -0.48929446  -0.48650025   1.61024939
 H  -0.08601947   0.14095794   2.40900594
 H  -0.03912019  -1.47607112   1.69598280
 H  -1.56934060  -0.56830153   1.73494483
 O   2.00839087  -0.96502858   0.03588171
 N   1.91389021   1.33917834  -0.09736022
 H   1.31481507   2.14331237  -0.03043403
 C   3.31766488   1.56920081  -0.40490561
 H   3.67236636   0.64424569  -0.87837013
 C   4.11458572   1.80238001   0.89136534
 C   3.48213024   2.77704986  -1.33411954
 H   3.04756756   3.64110678  -0.82855390
 H   4.54574825   2.98762315  -1.43897198
 O   4.73046380   2.83462587   1.12193122
 C   2.87523531   2.59284045  -2.69912391
 C   3.68766452   2.34603156  -3.80626604
 H   4.76170558   2.29633375  -3.68622350
 C   1.49403469   2.65310524  -2.89739365
 H   0.83703482   2.84906507  -2.06311541
 C   3.14130295   2.17080773  -5.07916539
 H   3.77164545   1.97207136  -5.93758175
 C   0.93759191   2.46630929  -4.15723244
 H  -0.14150560   2.47794002  -4.27712169
 O   1.25069948   2.00652190  -6.50358146
 H   0.29343335   2.07285718  -6.43928205
 C   1.76490224   2.23035723  -5.24589645
 N   4.06272394   0.79654058   1.80009017
 H   3.65941582  -0.08885641   1.52665091
 C   4.92812848   0.87441105   2.96130340
 H   4.73890401   1.83329111   3.45376868
 C   6.41047399   0.85854943   2.53578689
 C   4.60287582  -0.22537260   3.96756877
 H   5.08101443  -1.17219151   3.70236838
 H   3.52364489  -0.39394894   3.97453446
 O   6.82206440   0.39086853   1.48876285
 C   4.99150785   0.12730182   5.43026304
 O   4.72733355  -0.75952767   6.25159821
 O   5.50527339   1.25072026   5.64321554
 N   7.20725471   1.42604509   3.47337366
 H   6.77563352   1.61566711   4.38497387
 C   8.63476360   1.42610583   3.31890014
 H   8.85486057   0.79057055   2.45311449
 C   9.34352114   0.77835631   4.49201892
 C   9.19253550   2.82313963   3.05052265
 H   10.28148033   2.76115420   3.05231836
 H   8.90586992   3.48920375   3.86715197
 O   10.53437631   0.82385672   4.65637712
 C   8.70493257   3.38168079   1.72058569
 H   9.00368331   2.68496927   0.92991250
 H   7.61577568   3.41036776   1.69883554
 C   9.25689663   4.77035078   1.44595145
 H   8.95574707   5.43631388   2.26139127
 H   10.35084350   4.74379510   1.44576440
 C   8.77074970   5.37069053   0.14081598
 H   9.03614895   6.42824886   0.09105372
 H   7.67910379   5.31329691   0.10958845
 N   9.32104132   4.67165440  -1.04934826
 H   8.96643687   5.06132962  -1.92285374
 H   9.07704151   3.68227839  -1.03723041
 H   10.33903810   4.72814128  -1.07196917
 O   8.51136802   0.10504922   5.31015420
 H   9.06001019  -0.29442551   5.99839690
