21
conf-404
 N  -6.41892139  -1.55445190  -6.22681409
 H  -7.19337695  -2.16656876  -5.96044751
 H  -6.38089557  -0.77772731  -5.55896440
 H  -6.56904304  -1.19456026  -7.17088986
 C  -5.12432054  -2.24933303  -6.11958235
 H  -5.22023461  -3.27307186  -6.47795925
 C  -4.70996469  -2.24597785  -4.65531988
 C  -4.05523630  -1.52856682  -6.93278879
 H  -3.08345936  -2.00456089  -6.77964559
 H  -3.96892144  -0.50527502  -6.55856069
 O  -5.05019841  -1.32981698  -3.90280870
 C  -4.36973348  -1.44456675  -8.39632684
 C  -4.50954446  -0.37617950  -9.23083596
 H  -4.41411080   0.67315634  -8.98694155
 N  -4.60599406  -2.54493230  -9.19125973
 H  -4.58998598  -3.50758017  -8.89560868
 C  -4.86832974  -2.09678043  -10.44716030
 H  -5.08089971  -2.76600223  -11.26408341
 N  -4.82406816  -0.78603189  -10.51039776
 N  -3.92057027  -3.25724847  -4.24928869
 H  -3.54785991  -3.92176679  -4.90815137
 C  -3.41235150  -3.34467354  -2.88997448
 H  -4.19471072  -2.96888701  -2.23099143
 C  -2.17241910  -2.46698219  -2.74751114
 C  -3.07737143  -4.80157913  -2.56582178
 H  -2.53230409  -4.82013702  -1.61773894
 O  -1.02962940  -2.94312607  -2.69078596
 C  -4.30850965  -5.67287872  -2.46565929
 H  -4.96886257  -5.31673785  -1.67019293
 H  -4.01628729  -6.70113572  -2.24587359
 H  -4.86484843  -5.66937001  -3.40342285
 O  -2.24970721  -5.32535342  -3.59722335
 H  -1.40503819  -4.87147742  -3.49947394
 N  -2.38696631  -1.14357479  -2.71357526
 H  -3.32515461  -0.78955175  -2.85465917
 C  -1.27116506  -0.21071211  -2.71933216
 H  -0.44528916  -0.72288087  -3.23052115
 C  -0.81877636   0.06401410  -1.27845480
 C  -1.61332074   1.07766348  -3.44819603
 H  -0.71887057   1.70324688  -3.46502862
 H  -2.35560368   1.63014157  -2.87154401
 O  -0.81900432   1.19482058  -0.77449771
 C  -2.12888602   0.90231017  -4.87466956
 H  -3.11661869   0.43343454  -4.80986482
 C  -2.28761596   2.27431882  -5.52090027
 H  -1.31523517   2.76374461  -5.60613939
 H  -2.94464950   2.92253869  -4.93728401
 H  -2.70869549   2.18563291  -6.52577646
 C  -1.22919487   0.02146487  -5.73086113
 H  -0.22628155   0.45668687  -5.79115906
 H  -1.61849678  -0.04474842  -6.75107328
 H  -1.13521835  -0.99751367  -5.34308528
 N  -0.43417357  -1.02495379  -0.58033413
 H  -0.34054321  -1.91112556  -1.06083958
 C  -0.02123191  -0.91846698   0.80786506
 H  -0.58550474  -0.07510570   1.21950563
 C   1.46563843  -0.56905454   0.85018611
 C  -0.34052483  -2.18457205   1.58407155
 H  -0.23214841  -2.01659791   2.65752931
 H   0.33118006  -2.98848510   1.28030511
 H  -1.37211251  -2.47400027   1.37645301
 O   2.34251939  -1.39762106   1.09599029
 N   1.75846794   0.71665805   0.56437664
 H   0.99826807   1.36377500   0.41502344
 C   3.09939822   1.24790948   0.73651121
 H   3.77935971   0.44195535   0.44444996
 C   3.30200480   1.55915412   2.22288305
 C   3.32586873   2.48986226  -0.12313582
 H   2.55409612   3.21597512   0.12865780
 H   4.28001477   2.93546033   0.17109455
 O   3.33150425   2.71021254   2.66525756
 C   3.33768598   2.18993664  -1.59518380
 C   4.53730035   1.94634040  -2.26681750
 H   5.47611801   2.01040230  -1.72928354
 C   2.15218843   2.12620703  -2.33336680
 H   1.20906582   2.32544798  -1.84276977
 C   4.56387038   1.62566042  -3.62271009
 H   5.49900650   1.43225655  -4.13315331
 C   2.16720634   1.80955106  -3.69041494
 H   1.23961496   1.77701038  -4.24433026
 O   3.43924059   1.23262809  -5.66602899
 H   2.54360364   1.18978900  -6.01119234
 C   3.37280079   1.55180112  -4.33649749
 N   3.41772911   0.47383856   3.01715010
 H   3.28634047  -0.42708951   2.57147423
 C   3.14816224   0.55731834   4.44952347
 H   2.44624749   1.38193679   4.61255631
 C   4.46435445   0.86851797   5.18231550
 C   2.55291484  -0.74111481   4.96675497
 H   2.36215692  -0.66972701   6.03765375
 H   3.23708969  -1.57902977   4.82377961
 O   4.97634146   0.11568999   5.99645011
 C   1.19994724  -1.05044542   4.26839406
 O   0.69382915  -2.13812792   4.58660613
 O   0.74503964  -0.16454158   3.50930230
 N   5.04149135   2.04520217   4.83663254
 H   4.60374587   2.60006639   4.10858058
 C   6.38628623   2.33682290   5.28135578
 H   7.02760527   1.46784240   5.08558107
 C   6.45891142   2.55408775   6.78317525
 C   6.94746206   3.55276472   4.54200661
 H   7.92131082   3.79571850   4.97362923
 H   6.29426188   4.40735566   4.72315652
 O   7.43788677   2.29799964   7.43891613
 C   7.09425085   3.29873192   3.04968203
 H   7.75484186   2.43836092   2.89836513
 H   6.12967687   3.02095526   2.61870051
 C   7.63571179   4.48914273   2.28336631
 H   6.98326555   5.35201508   2.44194282
 H   8.62557407   4.76322954   2.65773693
 C   7.72386457   4.21360497   0.79888855
 H   6.73420040   3.92003576   0.43344835
 H   8.39484806   3.36918619   0.63013771
 N   8.19246708   5.39060490   0.02673027
 H   8.23384681   5.20602137  -0.97587375
 H   9.12474770   5.67612049   0.32508218
 H   7.57225392   6.18711225   0.16709367
 O   5.34828727   3.11238660   7.30253106
 H   5.51084103   3.21262767   8.24793003
