21
conf-234
 N  -6.95000692  -5.03155476  -5.38080672
 H  -7.23756793  -5.67584064  -4.64049178
 H  -7.50494128  -4.17809059  -5.28661240
 H  -7.16130600  -5.46125674  -6.28057982
 C  -5.50517024  -4.69549874  -5.27195702
 H  -4.92412803  -5.61872441  -5.22982863
 C  -5.28282449  -3.89463095  -3.99222611
 C  -5.06441642  -3.87854266  -6.47679204
 H  -5.64966434  -2.95652004  -6.49261352
 H  -5.33126489  -4.43446283  -7.37952089
 O  -5.75783798  -2.76676384  -3.84321448
 C  -3.60577341  -3.53044330  -6.51878332
 C  -2.48374531  -4.05137451  -5.94924605
 H  -2.41000186  -4.90478440  -5.29055782
 N  -3.14870227  -2.47341718  -7.27905866
 H  -3.72374195  -1.86047323  -7.83233829
 C  -1.80594112  -2.40759308  -7.12998545
 H  -1.20902849  -1.64604077  -7.59951659
 N  -1.36059215  -3.34195049  -6.32589119
 N  -4.57103979  -4.54267848  -3.02805955
 H  -4.02465053  -5.33905730  -3.32249439
 C  -4.06838572  -3.80293362  -1.87502481
 H  -4.80617494  -3.02127503  -1.67933254
 C  -2.72162897  -3.18388617  -2.23188417
 C  -3.99411367  -4.72547494  -0.66139622
 H  -3.30931006  -5.55044912  -0.90435979
 O  -1.65007889  -3.74617984  -1.98938011
 C  -3.53786129  -4.01861978   0.60035825
 H  -2.51340460  -3.65327654   0.50103190
 H  -3.58988407  -4.71026766   1.44049582
 H  -4.20251853  -3.17352596   0.79934326
 O  -5.29741641  -5.22738186  -0.38118481
 H  -5.66965815  -5.51381226  -1.22137607
 N  -2.78314707  -1.99842635  -2.87303286
 H  -3.68622249  -1.60434473  -3.08772889
 C  -1.58288158  -1.19005174  -3.06084458
 H  -0.78634314  -1.90308791  -3.27799853
 C  -1.27073072  -0.46157011  -1.74517765
 C  -1.75968351  -0.22644242  -4.21924580
 H  -2.52048233   0.50749103  -3.94430702
 H  -2.15328073  -0.79741090  -5.06472541
 O  -1.39910518   0.75324549  -1.61032474
 C  -0.48928842   0.50108343  -4.67153290
 H  -0.12562144   1.09338089  -3.82090616
 C   0.61402760  -0.46109114  -5.09636339
 H   0.27557617  -1.09970907  -5.91844618
 H   0.93552416  -1.10965201  -4.27814930
 H   1.49036405   0.08874105  -5.44835822
 C  -0.83140765   1.45857726  -5.80972392
 H  -1.17088532   0.90160037  -6.68758393
 H   0.04128470   2.04491286  -6.10605763
 H  -1.62244896   2.15370259  -5.52177331
 N  -0.91674344  -1.26714172  -0.70777691
 H  -0.60233454  -2.20979392  -0.90766333
 C  -0.44035916  -0.69167620   0.53021823
 H  -0.86939112   0.31017244   0.58828340
 C   1.08577077  -0.58823063   0.47903271
 C  -0.86701680  -1.53314758   1.72547794
 H  -0.57439608  -1.05141670   2.66055086
 H  -0.38982177  -2.51630414   1.67772367
 H  -1.95196315  -1.66967112   1.72445465
 O   1.77506207  -1.44093121  -0.05592067
 N   1.61183514   0.49102061   1.10425850
 H   1.05944316   1.11334711   1.67317931
 C   3.03229871   0.74871129   1.11489673
 H   3.56038431  -0.15895986   1.42605624
 C   3.24942088   1.85037289   2.15857693
 C   3.58216503   1.13155691  -0.27287181
 H   4.66877535   1.23392878  -0.18861908
 H   3.37710689   0.28749609  -0.92995485
 O   2.31906872   2.41595777   2.70251374
 C   2.96973501   2.38123895  -0.83745974
 C   1.74268488   2.33179301  -1.51028767
 H   1.24045121   1.38403986  -1.64506679
 C   3.58059133   3.62997407  -0.69049779
 H   4.53922717   3.69378759  -0.18445361
 C   1.14725735   3.48810109  -2.00504611
 H   0.19619895   3.44188432  -2.51857492
 C   2.98786354   4.79453062  -1.17721205
 H   3.48561855   5.74741816  -1.04103727
 O   1.12539539   5.81709897  -2.33990526
 H   1.65293059   6.59885855  -2.15835868
 C   1.76436069   4.71976024  -1.83676996
 N   4.53982634   2.14640172   2.41767801
 H   5.29731113   1.77391863   1.86645305
 C   4.92489174   3.23282508   3.29747166
 H   4.35557643   4.13384886   3.03457924
 C   6.42244451   3.45813974   3.00088414
 C   4.62666717   2.91369692   4.76219239
 H   5.39625987   2.26947944   5.19228474
 H   3.68099549   2.37095077   4.81412023
 O   7.03045108   2.76983040   2.19573688
 C   4.48201852   4.16798734   5.68319043
 O   4.01211209   3.92282948   6.80061798
 O   4.85608055   5.26704101   5.21958673
 N   6.98931531   4.45138483   3.70113040
 H   6.37952151   5.01418342   4.30772034
 C   8.38751676   4.77013331   3.48983668
 H   8.92217266   3.83386875   3.30376994
 C   8.93786442   5.43760431   4.72639328
 C   8.55882860   5.68356583   2.26761065
 H   8.05022515   6.62914784   2.46746650
 H   8.03357781   5.19875022   1.44475874
 O   8.31758615   6.16636902   5.45768644
 C   10.00766766   5.92178867   1.87470340
 H   10.54975355   6.42960013   2.67621328
 H   10.48774513   4.94797160   1.74035806
 C   10.11515408   6.74186548   0.59951235
 H   9.59746621   6.22765443  -0.21593178
 H   9.60082645   7.69734286   0.74776790
 C   11.54350033   7.03389685   0.18122632
 H   12.07588161   7.47718099   1.02725151
 H   11.55668223   7.76948317  -0.62498925
 N   12.27126456   5.81491114  -0.25706212
 H   13.23728111   6.01623975  -0.51620077
 H   11.81569669   5.38216489  -1.06031279
 H   12.29619010   5.11704637   0.48516131
 O   10.24873640   5.16506449   4.90005146
 H   10.52597662   5.67275792   5.67325941
