21
conf-549
 N  -5.39595715  -2.77083144  -7.03505683
 H  -6.23158953  -2.22683838  -7.25460501
 H  -4.59368214  -2.31222080  -7.48069310
 H  -5.48314470  -3.70271879  -7.44596155
 C  -5.17813276  -2.87015589  -5.58089695
 H  -6.04899459  -3.35793957  -5.13232409
 C  -5.07050947  -1.49707473  -4.92549142
 C  -3.95323703  -3.74481128  -5.24671605
 H  -4.21395473  -4.79196723  -5.42815998
 H  -3.74133618  -3.66001296  -4.17591557
 O  -4.64318395  -0.49979836  -5.51692307
 C  -2.71753213  -3.44094055  -6.04290172
 C  -1.75021798  -4.24979990  -6.56141537
 H  -1.66056897  -5.32196237  -6.47905674
 N  -2.37507106  -2.17374123  -6.43905692
 H  -2.89131911  -1.33716411  -6.21579666
 C  -1.23768942  -2.27142861  -7.16803208
 H  -0.75054499  -1.40468062  -7.57784117
 N  -0.82585938  -3.51429777  -7.27269670
 N  -5.45339613  -1.44443986  -3.63134248
 H  -5.65766042  -2.29083393  -3.12467645
 C  -5.30905970  -0.23830815  -2.83060990
 H  -5.57152170   0.60487208  -3.46669124
 C  -3.85780038  -0.09168243  -2.37395459
 C  -6.23411383  -0.31280556  -1.61360504
 H  -5.97072351   0.50974199  -0.94060922
 O  -3.45905586  -0.57336618  -1.31248319
 C  -7.69436558  -0.21052145  -1.99081213
 H  -7.90118564   0.74432908  -2.48227169
 H  -8.31284571  -0.28591346  -1.09495402
 H  -7.97814552  -1.01550883  -2.66958796
 O  -6.04060715  -1.55293130  -0.94431341
 H  -5.13973013  -1.51967449  -0.59872911
 N  -3.04631441   0.57237568  -3.21938547
 H  -3.39490474   0.73578581  -4.15721098
 C  -1.60266221   0.51697539  -3.03900840
 H  -1.38159317  -0.46978962  -2.61873933
 C  -1.14290695   1.56828884  -2.02410434
 C  -0.88109677   0.68616013  -4.36531161
 H  -0.98293446   1.72461863  -4.68650831
 H  -1.39227643   0.06107678  -5.10087994
 O  -0.58062034   2.60504111  -2.34259475
 C   0.59284323   0.27803762  -4.31741665
 H   1.05053632   0.78235784  -3.45723674
 C   0.72834610  -1.23052656  -4.13713021
 H   0.24319643  -1.74841255  -4.96357902
 H   0.27063729  -1.56788648  -3.20458805
 H   1.77965852  -1.52686002  -4.11743898
 C   1.30875361   0.75004803  -5.57895100
 H   0.85880607   0.29987680  -6.46821646
 H   2.36424967   0.47104360  -5.55849896
 H   1.24765167   1.83511242  -5.67891053
 N  -1.38921938   1.25940002  -0.71884783
 H  -1.80414980   0.35911476  -0.52504232
 C  -0.47251939   1.77692210   0.27893960
 H  -0.33804743   2.84030961   0.06522914
 C   0.89857517   1.08150865   0.12993276
 C  -1.03676585   1.58315754   1.67843418
 H  -0.37289332   2.02153419   2.42601463
 H  -1.14640600   0.51835983   1.89795904
 H  -2.01482269   2.06069039   1.75016942
 O   1.06157657   0.06540682  -0.53115808
 N   1.90841151   1.67561532   0.81107180
 H   1.76859847   2.55753705   1.27535504
 C   3.26654507   1.17318720   0.72902009
 H   3.22814145   0.08338728   0.79668570
 C   4.02055531   1.76644529   1.91147407
 C   3.93922626   1.56563010  -0.60253795
 H   3.31341486   1.18266312  -1.41019552
 H   3.94713901   2.65357839  -0.66821470
 O   3.95867099   2.97356045   2.16288414
 C   5.34164834   1.02910573  -0.70412002
 C   6.39002919   1.71221767  -0.08297534
 H   6.18001193   2.65092556   0.41801100
 C   5.63493032  -0.18207891  -1.33454180
 H   4.84779471  -0.72580155  -1.84209028
 C   7.67405043   1.18320702  -0.02596428
 H   8.45067824   1.69306403   0.52489839
 C   6.92803247  -0.70216537  -1.32231382
 H   7.13344793  -1.64092270  -1.82444730
 O   9.22890141  -0.49022310  -0.58404216
 H   9.28541946  -1.32482833  -1.05644542
 C   7.94659604  -0.02150192  -0.65886576
 N   4.78643647   0.90034890   2.60396047
 H   4.67481034  -0.11162377   2.50766001
 C   5.57088332   1.29297343   3.75646117
 H   4.90352032   1.54338974   4.58669108
 C   6.44616530   2.53360769   3.46804548
 C   6.47713796   0.12471174   4.13242525
 H   7.09375043   0.36571282   4.99596089
 H   7.11723616  -0.08506493   3.27275182
 O   7.30917454   2.55847455   2.58250567
 C   5.60045261  -1.11032004   4.42820666
 O   4.98805817  -1.58348775   3.44232094
 O   5.60510167  -1.54066755   5.58746296
 N   6.25884809   3.57743357   4.30622455
 H   5.53042084   3.56729212   4.99743737
 C   6.95449585   4.81294280   4.04137974
 H   7.94770177   4.55517085   3.67120360
 C   7.10037325   5.57824733   5.33196411
 C   6.24831114   5.67282111   2.98074105
 H   6.18395722   5.05424243   2.08300653
 H   6.88994957   6.52238048   2.74471784
 O   6.51414118   5.34547915   6.35754542
 C   4.86014150   6.15029971   3.38363073
 H   4.25076351   5.29452136   3.68458806
 H   4.94227281   6.80467873   4.25062003
 C   4.16319627   6.85679780   2.23410297
 H   4.75354194   7.72020200   1.91255539
 H   4.11042409   6.16760464   1.38347750
 C   2.75356549   7.30767982   2.56283957
 H   2.18726050   6.45026594   2.93736565
 H   2.24914904   7.65481057   1.65910358
 N   2.72259787   8.38508446   3.58572375
 H   1.77186717   8.69405273   3.78984869
 H   3.25709692   9.19783965   3.28002639
 H   3.13163001   8.06945080   4.46405449
 O   7.96548858   6.60197675   5.19289752
 H   7.99903827   7.04528730   6.05014454
