21
conf-302
 N  -6.94976120  -1.35489090  -5.52082538
 H  -7.71641812  -0.83900008  -5.08340652
 H  -6.44282020  -0.71097487  -6.13358922
 H  -7.34215292  -2.10538345  -6.08691957
 C  -5.99333537  -1.87542256  -4.51636179
 H  -6.53354689  -2.39268400  -3.71936496
 C  -5.22486865  -0.69903149  -3.92628779
 C  -5.01036433  -2.84096871  -5.18587420
 H  -4.53955557  -2.29937447  -6.01025008
 H  -5.57937451  -3.65889914  -5.63210559
 O  -4.70140096   0.13689208  -4.66430494
 C  -3.93235764  -3.39217532  -4.29835409
 C  -3.92729967  -4.00594195  -3.08271895
 H  -4.77768434  -4.28356230  -2.47193265
 N  -2.59765231  -3.30628365  -4.64563385
 H  -2.23034947  -2.92439083  -5.50005728
 C  -1.86785866  -3.83221345  -3.62854577
 H  -0.79770625  -3.83713291  -3.65685495
 N  -2.64005201  -4.26966395  -2.66025724
 N  -5.13129812  -0.64562725  -2.58255239
 H  -5.58350326  -1.34358944  -2.01759405
 C  -4.26690935   0.31256012  -1.91079350
 H  -4.39701640   1.26687920  -2.42315400
 C  -2.81674091  -0.17060530  -2.02837259
 C  -4.69148312   0.45212411  -0.45209767
 H  -4.53190202  -0.51735597   0.03779632
 O  -2.26523252  -0.83288216  -1.15335063
 C  -3.93448491   1.55099081   0.27177995
 H  -2.86640308   1.34377146   0.29416814
 H  -4.29562623   1.63959686   1.29831065
 H  -4.10275306   2.50000753  -0.24144718
 O  -6.08528359   0.77313802  -0.46916718
 H  -6.39229352   0.80007855   0.43987464
 N  -2.18863609   0.16482320  -3.17905320
 H  -2.74713574   0.48485748  -3.96226010
 C  -0.84437629  -0.32322257  -3.42522991
 H  -0.79990441  -1.34178271  -3.01838953
 C   0.16494340   0.55050013  -2.68143159
 C  -0.53033995  -0.35583895  -4.91400678
 H  -0.63788814   0.65746070  -5.30777937
 H  -1.28555308  -0.97263087  -5.40748214
 O   0.61660908   1.58668341  -3.14883587
 C   0.86590580  -0.87178061  -5.28333611
 H   1.58988013  -0.15084755  -4.88822098
 C   1.19887348  -2.23547743  -4.68669799
 H   0.54658552  -3.01238349  -5.09554643
 H   1.11885020  -2.24163411  -3.59727148
 H   2.22993477  -2.50424903  -4.93194296
 C   0.99301236  -0.91329681  -6.80280080
 H   0.27982534  -1.63028764  -7.21543804
 H   1.99603013  -1.22037730  -7.10590358
 H   0.79103483   0.06452427  -7.24381444
 N   0.51420231   0.10328105  -1.44718885
 H   0.17583340  -0.79600671  -1.14688317
 C   1.70182175   0.62922513  -0.80546449
 H   1.63729486   1.71961343  -0.86961147
 C   2.95861589   0.15851059  -1.56046182
 C   1.75451737   0.16043898   0.64606761
 H   2.67899757   0.48472706   1.13691871
 H   1.72797965  -0.93077072   0.66925618
 H   0.89596320   0.54511536   1.19587722
 O   3.04092712  -0.94669527  -2.06905408
 N   3.98185692   1.05946097  -1.59918102
 H   3.90434755   1.83797500  -0.97031493
 C   5.33628547   0.53886986  -1.73886045
 H   5.30208552  -0.23395913  -2.50858079
 C   5.73585779  -0.12784399  -0.40521166
 C   6.30333455   1.66123549  -2.16417038
 H   7.28175230   1.20724665  -2.35666454
 H   5.93436841   2.06460969  -3.11022924
 O   4.93749997  -0.25645387   0.51927346
 C   6.42941722   2.75763962  -1.13869050
 C   5.58745679   3.86936007  -1.14900286
 H   4.84635847   3.97553474  -1.93220935
 C   7.37497997   2.66545149  -0.11142165
 H   8.06112338   1.83435085  -0.08774030
 C   5.67345848   4.85488334  -0.16151098
 H   5.00793754   5.70835245  -0.16573005
 C   7.46109116   3.62882535   0.89228598
 H   8.14674061   3.48280435   1.72111537
 O   6.66855596   5.71444133   1.81995311
 H   7.42760618   5.52568863   2.37300059
 C   6.61556272   4.73324944   0.84884695
 N   7.01670637  -0.53318837  -0.28967999
 H   7.58690706  -0.75278235  -1.10976576
 C   7.47775839  -1.11256797   0.96565620
 H   6.81545614  -1.94147996   1.23289620
 C   7.40493493  -0.02869350   2.04818902
 C   8.90805152  -1.60017696   0.77088722
 H   9.25994389  -2.16954482   1.63169852
 H   9.55011916  -0.72841595   0.62350158
 O   8.24193890   0.87186623   2.10155484
 C   8.96888340  -2.50244591  -0.48267523
 O   9.18618344  -3.70425848  -0.29314669
 O   8.82478597  -1.92084684  -1.58631989
 N   6.37471211  -0.08807389   2.91457610
 H   5.55139417  -0.62762284   2.67189706
 C   6.15439767   0.99632270   3.84865977
 H   7.11688378   1.46809835   4.05777272
 C   5.56234148   0.42061569   5.11290183
 C   5.19541300   2.04587844   3.26229042
 H   4.21936257   1.57420991   3.09179886
 H   5.60426349   2.32855587   2.28053722
 O   4.84005686  -0.54006889   5.16331760
 C   5.03564460   3.30241210   4.09825390
 H   4.69550585   3.06887690   5.10797965
 H   6.02186089   3.77220861   4.19735816
 C   4.08294690   4.28765576   3.44624795
 H   4.37908244   4.43943920   2.40054981
 H   3.07191687   3.87293338   3.42824866
 C   4.07084843   5.62999604   4.14500353
 H   5.10056162   5.98762004   4.22911285
 H   3.68258194   5.51519459   5.15892996
 N   3.27781943   6.63963159   3.40034961
 H   3.23498925   7.53571689   3.88739339
 H   2.31997598   6.32084222   3.25519735
 H   3.69467414   6.80346837   2.48335077
 O   5.90244427   1.14466970   6.20062613
 H   5.44218690   0.73947996   6.94595738
