21
conf-448
 N  -6.53708071  -1.34059606  -6.93175771
 H  -7.43556998  -0.86909339  -6.81342360
 H  -5.82483676  -0.61515293  -7.05280933
 H  -6.57156671  -1.93602330  -7.75602128
 C  -6.15222158  -2.09005186  -5.71851681
 H  -7.03153205  -2.57360020  -5.27685330
 C  -5.57509990  -1.06868582  -4.74289393
 C  -5.11398157  -3.17506853  -6.06184822
 H  -4.20819766  -2.69271060  -6.44150027
 H  -5.52272985  -3.78213926  -6.87150791
 O  -5.04210525  -0.04110009  -5.16096129
 C  -4.78626564  -4.07107750  -4.91207707
 C  -5.28236536  -5.27671626  -4.50080696
 H  -6.01721390  -5.89148931  -4.99852434
 N  -3.89379237  -3.71260581  -3.93558367
 H  -3.37963331  -2.83348854  -3.89396476
 C  -3.89815030  -4.67684553  -2.98940992
 H  -3.28883913  -4.60160407  -2.09962779
 N  -4.72358807  -5.65449859  -3.29609526
 N  -5.66658004  -1.35484726  -3.43098939
 H  -5.87440527  -2.29011270  -3.12236499
 C  -5.10112848  -0.46814997  -2.42962346
 H  -5.21497814   0.54440201  -2.82085384
 C  -3.61390644  -0.74173333  -2.23098821
 C  -5.86740274  -0.61236813  -1.11460107
 H  -5.35196131  -0.01536455  -0.35787398
 O  -3.15060122  -1.14807432  -1.16294347
 C  -7.30715002  -0.16883210  -1.23279167
 H  -7.36684210   0.88429907  -1.52074210
 H  -7.81152489  -0.30066818  -0.27394599
 H  -7.83150217  -0.76428328  -1.97970032
 O  -5.87323191  -1.97959953  -0.71743141
 H  -4.98247356  -2.16600959  -0.40083649
 N  -2.83049361  -0.56569719  -3.31769098
 H  -3.21421009  -0.05747276  -4.10886649
 C  -1.37809776  -0.66075409  -3.20186376
 H  -1.18927513  -1.48313824  -2.50887086
 C  -0.82751235   0.63167028  -2.59765082
 C  -0.75146758  -0.96621359  -4.55194272
 H  -0.90490201  -0.10705637  -5.20796806
 H  -1.29582495  -1.81031342  -4.99330862
 O  -0.34063702   1.53832878  -3.28144160
 C   0.73989682  -1.32061470  -4.52565276
 H   1.27883671  -0.46438600  -4.09482496
 C   1.03209137  -2.55195442  -3.67636971
 H   0.48501076  -3.41883224  -4.06012185
 H   0.75384090  -2.40688223  -2.63077547
 H   2.09718573  -2.79304780  -3.70444774
 C   1.23528799  -1.51842144  -5.95588422
 H   0.71282534  -2.35533214  -6.42524884
 H   2.30556974  -1.73526097  -5.97581516
 H   1.06250127  -0.62525647  -6.55957212
 N  -0.92591863   0.73059268  -1.25699754
 H  -1.43873581   0.02397059  -0.74350446
 C  -0.45556871   1.91221541  -0.55600014
 H  -0.61224133   2.75802819  -1.23485142
 C   1.05496049   1.79881971  -0.28517347
 C  -1.21993974   2.10667532   0.74090478
 H  -0.86680818   3.00206091   1.25296311
 H  -1.06720826   1.25287766   1.40341336
 H  -2.28500833   2.21616465   0.52815946
 O   1.53151705   1.77393570   0.84117931
 N   1.84502747   1.69245394  -1.37994305
 H   1.43475927   1.84106714  -2.29424593
 C   3.28654417   1.67844076  -1.20842453
 H   3.56176939   0.76204330  -0.67283573
 C   3.67944364   2.87743976  -0.35454070
 C   3.98747395   1.75901138  -2.56536333
 H   3.59423009   0.96811554  -3.21004760
 H   3.69853555   2.71593663  -3.00899777
 O   3.41768958   4.01812246  -0.71404714
 C   5.48669831   1.62805340  -2.48790394
 C   6.28374553   2.63388171  -1.93131039
 H   5.82939337   3.55251948  -1.59320366
 C   6.13027624   0.47465007  -2.94371946
 H   5.54172624  -0.32193278  -3.37636505
 C   7.66266716   2.49906919  -1.82327064
 H   8.26191074   3.28023875  -1.37284861
 C   7.51264007   0.32815127  -2.85232851
 H   7.98383250  -0.57751767  -3.21936695
 O   9.64025124   1.26849997  -2.16575965
 H   9.94463506   0.42915213  -2.52030344
 C   8.28278958   1.34367071  -2.28973307
 N   4.31863042   2.59391376   0.79297022
 H   4.23085412   1.66356826   1.21097036
 C   4.54655428   3.63980921   1.76569244
 H   3.58954678   4.13371070   1.98162354
 C   5.53456466   4.65785447   1.19571450
 C   5.12587813   3.01012481   3.02676493
 H   5.28046616   3.75325516   3.80884862
 H   6.07735483   2.54857198   2.75632963
 O   6.64749963   4.32066001   0.78928633
 C   4.14772851   1.92614280   3.53376018
 O   4.05170244   0.90517050   2.80822214
 O   3.57699634   2.13830990   4.60790988
 N   5.12338505   5.93991616   1.19027142
 H   4.25805861   6.21659158   1.62553589
 C   5.97280964   6.97497799   0.64279621
 H   6.97514956   6.86103745   1.06494372
 C   5.41176124   8.30797333   1.07941765
 C   6.10867284   6.88973009  -0.88509996
 H   6.56145727   5.91642724  -1.08860775
 H   6.81717386   7.65269456  -1.21049105
 O   4.36392954   8.46306609   1.65226200
 C   4.79265221   7.02942259  -1.62984569
 H   4.07687170   6.29877492  -1.24921290
 H   4.36906392   8.01936580  -1.43086650
 C   4.93469505   6.84416810  -3.13462364
 H   3.98636041   7.10448441  -3.61360129
 H   5.68525391   7.54208410  -3.52280974
 C   5.31235717   5.44131096  -3.56388828
 H   4.58852136   4.72848655  -3.15711413
 H   6.29363920   5.17296806  -3.16764059
 N   5.33752949   5.30576866  -5.03916676
 H   5.57662587   4.35969820  -5.33698198
 H   6.02184170   5.93976111  -5.44709547
 H   4.43051896   5.53684223  -5.43969968
 O   6.22429158   9.32661172   0.73817181
 H   5.79560300   10.13261739   1.05373946
