121
123
N         -0.31569       -1.31496       -7.87631
H         -0.05842       -1.67687       -8.79391
H          0.82732       -0.25853       -7.23975
H         -1.20517       -0.82487       -7.97456
C         -0.51459       -2.43467       -6.92665
H         -1.28050       -3.13328       -7.29575
C         -1.09604       -1.77352       -5.66642
C          0.80088       -3.18570       -6.73097
H          0.66769       -4.06176       -6.08768
H          1.17151       -3.55526       -7.69232
H          1.56711       -2.52937       -6.30486
O         -1.92770       -0.87132       -5.77971
N         -0.64469       -2.19293       -4.45945
H          0.15476       -2.80993       -4.42708
C         -0.88503       -1.38388       -3.26349
H         -1.95806       -1.19596       -3.18322
C         -0.11707       -0.06954       -3.44346
C         -0.36849       -2.11437       -2.01569
H         -0.94928       -3.03707       -1.89735
H          0.67211       -2.40340       -2.20592
O          1.12138       -0.07665       -3.42759
C         -0.42499       -1.28037       -0.77248
C          0.64555       -0.67134       -0.15484
H          1.68320       -0.64513       -0.45370
C         -1.57676       -1.00894        0.05210
C         -1.11443       -0.25554        1.17115
C         -2.94082       -1.33867       -0.03245
H         -3.32044       -1.91687       -0.87155
N          0.24099       -0.05485        1.00288
H          0.88335        0.41552        1.63535
C         -3.31537       -0.20058        2.08931
H         -4.00688        0.09274        2.87345
C         -1.97379        0.14327        2.20126
H         -1.60438        0.69829        3.05767
C         -3.79647       -0.92920        0.98146
H         -4.85149       -1.18018        0.92923
N         -0.85975        1.03822       -3.64012
H         -1.84859        0.89957       -3.81151
C         -0.28251        2.34381       -3.93696
H          0.79696        2.20315       -3.87647
C         -0.58549        3.40492       -2.87764
C         -0.61502        2.85580       -5.34557
H         -1.69126        3.04713       -5.43054
H         -0.10954        3.81683       -5.45060
O         -0.31096        4.57934       -3.09190
C         -0.19810        1.88701       -6.45858
H         -0.84230        1.00518       -6.45922
H         -0.32435        2.37718       -7.43310
C          1.25121        1.45553       -6.34232
O          1.59289        0.26095       -6.79147
O          2.09341        2.18485       -5.81553
N         -1.10303        2.96073       -1.69780
H         -1.02566        1.96732       -1.51069
C         -0.95225        3.83652       -0.54481
H         -1.34729        4.81732       -0.82441
C          0.55256        3.94699       -0.26319
C         -1.71919        3.28980        0.67640
H         -1.23584        2.34965        0.96392
O          1.29772        2.96034       -0.40451
C         -1.63930        4.26097        1.86076
H         -2.10602        5.22264        1.61205
H         -2.17611        3.84756        2.72007
H         -0.60983        4.45357        2.17649
C         -3.17914        2.99184        0.31769
H         -3.68575        3.89666       -0.03946
H         -3.26083        2.22604       -0.45794
H         -3.71172        2.62342        1.19855
N          1.00926        5.13272        0.16606
H          0.38138        5.91170        0.32965
C          2.41796        5.40061        0.41730
H          2.99624        4.81208       -0.30506
C          2.82954        4.94732        1.83472
C          2.67912        6.90328        0.22937
H          3.72439        7.09072        0.50248
O          3.41230        5.69732        2.61512
C          2.42496        7.36558       -1.19772
H          3.12386        6.88041       -1.88768
H          1.40807        7.12785       -1.52519
H          2.56524        8.44760       -1.26089
O          1.80714        7.62357        1.09765
H          2.15414        7.47253        1.99524
N          2.49924        3.66150        2.11719
H          2.09466        3.10336        1.36595
C          2.97758        2.96489        3.30999
H          3.83650        3.53596        3.67594
C          3.43620        1.61283        2.76756
C          1.94406        2.88468        4.46003
H          2.45232        2.35677        5.27993
O          2.63570        0.78792        2.30934
C          1.60238        4.30107        4.94254
H          1.05269        4.85149        4.17116
H          2.49935        4.87857        5.18331
H          0.96905        4.25162        5.83402
C          0.66724        2.11133        4.10659
H          0.21556        2.50708        3.19058
H         -0.06723        2.22410        4.91136
H          0.85882        1.04640        3.96469
N          4.77075        1.42372        2.68841
H          5.41643        2.03824        3.17035
C          5.33059        0.22620        2.08835
H          4.60342       -0.58019        2.21828
C          6.60698       -0.11258        2.84092
C          5.63700        0.37947        0.57630
H          5.87170       -0.62130        0.19549
H          6.54323        0.98531        0.44681
O          7.16232        0.63868        3.61129
C          4.48936        1.00625       -0.23217
H          3.52603        0.63224        0.12212
H          4.46990        2.08960       -0.06432
C          4.62743        0.70023       -1.72834
H          5.66652        0.84868       -2.05486
H          4.39928       -0.36381       -1.88605
C          3.70117        1.54637       -2.60201
H          4.08981        2.55661       -2.74816
H          2.69315        1.62030       -2.18770
N          3.56102        0.90491       -3.95908
H          3.15510        1.52938       -4.70741
H          4.45262        0.53546       -4.29760
H          2.86158        0.14822       -3.88360
O          7.06774       -1.33150        2.50929
H          7.89992       -1.46856        3.00205
