21
conf-156
 N  -10.58997465  -2.34651223  -8.96159009
 H  -10.60628914  -2.32071467  -9.98229164
 H  -10.13758719  -3.22533297  -8.68975690
 H  -11.53875880  -2.31710716  -8.59730644
 C  -9.74903267  -1.27488829  -8.40094170
 H  -9.83931246  -0.36249199  -8.99731224
 C  -8.30402520  -1.76727002  -8.40160905
 C  -10.16461180  -0.93897282  -6.96538194
 H  -10.05446776  -1.83971565  -6.34193118
 H  -11.21864279  -0.64706614  -6.96351414
 O  -8.04874747  -2.96241037  -8.42070353
 O  -9.42854173   0.15335708  -6.45390462
 H  -8.58948533  -0.17142729  -6.09282126
 N  -7.34513442  -0.80258925  -8.34473364
 H  -7.64941607   0.12865609  -8.10457664
 C  -6.00160991  -1.14117394  -7.91938422
 H  -5.79942949  -2.13760188  -8.31144980
 C  -5.92368583  -1.20421163  -6.39191497
 C  -4.99546321  -0.14127968  -8.47279786
 H  -3.97940659  -0.41830809  -8.18319738
 H  -5.20192880   0.86014464  -8.08832727
 H  -5.05373977  -0.11932577  -9.56102914
 O  -6.72517717  -0.62021104  -5.64855348
 N  -4.88244398  -1.89149158  -5.88975084
 H  -4.23717834  -2.35435746  -6.51087018
 C  -4.55804973  -1.87677286  -4.47178998
 H  -4.89962074  -0.92575976  -4.05820847
 C  -3.04486930  -2.00298990  -4.38051360
 C  -5.27468228  -3.00796574  -3.71058437
 H  -4.90605970  -3.96447906  -4.09299422
 O  -2.46164477  -2.95067240  -4.89942373
 C  -5.03524283  -2.90953032  -2.21400878
 H  -3.97186412  -3.00332815  -1.97346458
 H  -5.39885425  -1.94442611  -1.84515662
 H  -5.58415723  -3.70340762  -1.70560866
 O  -6.66767391  -2.96482607  -3.96823759
 H  -6.88379477  -2.05692800  -4.20232660
 N  -2.41124536  -0.99411357  -3.74387310
 H  -2.93588783  -0.26951338  -3.27533923
 C  -0.97179183  -0.97748587  -3.54553553
 H  -0.61816712  -2.00275429  -3.67546251
 C  -0.73832828  -0.47524983  -2.12096025
 C  -0.23834901  -0.08836296  -4.57998877
 H  -0.60308599   0.93022021  -4.42935823
 O  -1.39993632   0.44330600  -1.66537403
 C   1.28111424  -0.11162459  -4.38088845
 H   1.65136243  -1.13182940  -4.53752689
 H   1.61844971   0.22862234  -3.39796817
 H   1.76015215   0.53157412  -5.12195262
 C  -0.56489381  -0.52900172  -6.00543278
 H  -0.31544181  -1.58297202  -6.13822204
 H  -1.62217580  -0.39428156  -6.24323230
 H   0.01322741   0.05878985  -6.71995270
 N   0.24142335  -1.11033763  -1.40859343
 H   0.88793650  -1.66591793  -1.94826370
 C   0.78467650  -0.44491534  -0.22725864
 H  -0.02184819   0.19745764   0.11499786
 C   1.97696814   0.45974855  -0.58854115
 C   1.14160259  -1.43548431   0.90445465
 H   0.21851761  -1.98625580   1.10228203
 O   2.93953859   0.07194924  -1.29454602
 C   1.56004454  -0.72198062   2.19917570
 H   2.41681171  -0.06810125   1.99026681
 H   1.93337114  -1.48154117   2.89280397
 C   2.23316296  -2.41754752   0.48993848
 H   3.17049498  -1.87369642   0.34073709
 H   1.99445216  -2.92052560  -0.44712270
 H   2.38510748  -3.16968720   1.26342839
 C   0.46870841   0.07896208   2.89593820
 H   0.90972506   0.72058404   3.66286791
 H  -0.07621891   0.73201870   2.20472466
 H  -0.27004017  -0.57807200   3.36358416
 N   1.87867711   1.73016977  -0.04516605
 H   1.22874563   1.84194696   0.72116600
 C   3.09983205   2.52648137   0.07447106
 H   3.67102428   2.31189285  -0.82876387
 C   3.84303277   2.03465080   1.33504210
 C   2.81031885   4.01860955   0.20713726
 H   2.33567588   4.24403111   1.16568455
 H   3.76159853   4.55253103   0.17431157
 O   3.36990744   2.24506254   2.48445378
 C   1.97072102   4.51190971  -0.93817398
 O   2.33465410   4.55631782  -2.08518676
 O   0.73826059   4.88741789  -0.53786549
 N   4.94772518   1.28318009   1.07222930
 H   5.01082715   0.88550239   0.14533705
 C   5.79626532   0.77741939   2.15286140
 H   5.15975612   0.64432333   3.02949530
 C   6.86082110   1.80968504   2.49857968
 C   6.39066762  -0.55574789   1.76233823
 H   7.11201171  -0.40927085   0.95271846
 H   5.57017290  -1.15727429   1.35260462
 O   8.04143221   1.65336607   2.19448220
 C   7.03866599  -1.30709462   2.89036516
 C   7.00048135  -1.19804589   4.25057282
 H   6.50581034  -0.44995291   4.85379454
 N   7.83009790  -2.41371162   2.65308053
 H   8.10779666  -2.74957047   1.74331662
 C   8.20847060  -2.91330759   3.85481521
 H   8.84993874  -3.77870693   3.94353554
 N   7.72471112  -2.20901451   4.84963393
 N   6.43782114   2.91938048   3.13078667
 H   5.46132268   2.97499876   3.38965614
 C   7.40227839   3.84334540   3.69824096
 H   8.01512306   4.21977626   2.87758185
 C   8.31885579   3.09554471   4.66884991
 C   6.68795797   4.98567244   4.41707766
 H   5.96444422   5.42049524   3.72306069
 H   6.12803828   4.54722569   5.24714622
 O   7.88324014   2.32739978   5.51505739
 C   7.60127171   6.08862995   4.95923208
 H   8.32859630   5.62052674   5.63420448
 C   8.36860874   6.79527862   3.84752487
 H   7.67489202   7.26537916   3.14477649
 H   9.01498051   7.57374521   4.26249390
 H   9.00979920   6.10952282   3.28792634
 C   6.77949555   7.08654820   5.76882685
 H   6.03670039   7.57137702   5.13119317
 H   7.41818924   7.86177262   6.19721293
 H   6.25606221   6.59090950   6.58877144
 N   9.64059699   3.37415664   4.50004374
 H   9.92972589   4.27749426   4.14999562
 C   10.65257802   2.88119301   5.39196437
 H   10.21161317   2.62321791   6.36413642
 C   11.64379603   4.07694283   5.56535588
 C   11.42520266   1.68574935   4.82756896
 H   12.34668243   1.56179832   5.40235579
 H   11.71590524   1.91435337   3.79983819
 O   12.58752445   3.91511605   6.33813020
 C   10.60109674   0.39772082   4.86565113
 H   10.78390021  -0.11321352   5.81617107
 H   9.53501369   0.62514766   4.85096422
 C   10.93148991  -0.53455316   3.71551607
 H   12.00878298  -0.70225009   3.64648307
 H   10.45575569  -1.51164178   3.86997031
 N   10.45213028   0.07404333   2.45790813
 H   9.74027060   0.79562611   2.53851698
 N   11.19807449  -1.69167031   1.13023329
 H   10.92621032  -2.30423877   0.37610000
 H   11.48836550  -2.16888249   1.96963720
 N   9.78865087  -0.06766599   0.22821723
 H   10.15241025  -0.30809849  -0.68268743
 H   9.43185357   0.87797583   0.31867849
 C   10.46334659  -0.56135753   1.29330507
 O   11.35198379   5.09322547   4.88975887
 H   0.27192779   5.18331535  -1.33284368
