21
conf-596
 N  -11.12794515   0.20867305  -10.05896357
 H  -10.36238759   0.63827283  -10.57724988
 H  -11.29453858  -0.73347055  -10.42681980
 H  -11.97530716   0.75906218  -10.19698873
 C  -10.81037336   0.07548624  -8.61558356
 H  -10.82852376   1.06851119  -8.15093569
 C  -9.40913508  -0.51774591  -8.46849143
 C  -11.83586867  -0.82890037  -7.95425596
 H  -12.82373469  -0.37298956  -8.03335800
 H  -11.59365421  -0.95999543  -6.89367278
 O  -9.21446744  -1.69966179  -8.20793750
 O  -11.91678691  -2.07894393  -8.61432862
 H  -11.04665901  -2.48022743  -8.49272037
 N  -8.39241301   0.34400277  -8.75640390
 H  -8.54314952   1.32631951  -8.57075546
 C  -7.01984322  -0.07405202  -8.52346670
 H  -7.01044689  -1.16041019  -8.59699963
 C  -6.60294561   0.35204043  -7.11914775
 C  -6.08800785   0.53280664  -9.56491499
 H  -5.06198841   0.18927168  -9.41192622
 H  -6.10153084   1.62348336  -9.49552370
 H  -6.40686476   0.24414693  -10.56662343
 O  -7.04759475   1.36465590  -6.58797861
 N  -5.66737617  -0.41426437  -6.52347757
 H  -5.21917695  -1.17750803  -7.00814486
 C  -5.04706392  -0.03837506  -5.27155634
 H  -5.02750077   1.05424493  -5.20940967
 C  -3.63213364  -0.62356155  -5.30181454
 C  -5.86881778  -0.55764006  -4.06165428
 H  -5.88120670  -1.65360820  -4.10842422
 O  -3.37610035  -1.62355003  -5.95251037
 C  -5.30699314  -0.10199300  -2.72157899
 H  -4.32788533  -0.53436782  -2.49927550
 H  -5.21209906   0.99106715  -2.69609538
 H  -5.99899951  -0.39643118  -1.93165454
 O  -7.21438789  -0.13304437  -4.16872840
 H  -7.23996115   0.62863547  -4.76001153
 N  -2.71044778   0.03047582  -4.54853624
 H  -3.01221228   0.81319430  -3.98971529
 C  -1.44538071  -0.58298487  -4.21706863
 H  -1.50767102  -1.61293667  -4.56828008
 C  -1.26778428  -0.59920836  -2.68567209
 C  -0.23954386   0.07189539  -4.92094912
 H   0.62864693  -0.53115860  -4.63079665
 O  -1.94066242   0.14144901  -1.94386291
 C  -0.39024910  -0.00973848  -6.43852750
 H  -1.18093421   0.65739956  -6.78711255
 H  -0.64202789  -1.02394620  -6.75692734
 H   0.53880197   0.29133822  -6.92772675
 C  -0.02342354   1.50388925  -4.43847892
 H  -0.80661623   2.15621561  -4.83374835
 H  -0.06675578   1.54663556  -3.34522168
 H   0.94043723   1.88802501  -4.77839734
 N  -0.30847998  -1.50065654  -2.28764211
 H   0.34532100  -1.77838837  -3.00313246
 C   0.31225224  -1.53045965  -0.97582681
 H  -0.15776067  -0.77965272  -0.33936241
 C   1.78291061  -1.16500520  -1.23771260
 C   0.17272434  -2.91252285  -0.29874236
 H   0.81115758  -3.60491334  -0.86155979
 O   2.29432533  -1.35709421  -2.32971988
 C  -1.26041467  -3.46683147  -0.38105142
 H  -1.26983974  -4.41350933   0.16934510
 H  -1.49316573  -3.72579633  -1.41826517
 C   0.64516506  -2.89887188   1.15619917
 H   0.02695643  -2.21962893   1.75077089
 H   1.68609161  -2.59570910   1.26153929
 H   0.54116334  -3.89895808   1.58656892
 C  -2.34555718  -2.55165606   0.17257881
 H  -3.31561621  -3.05130910   0.15584081
 H  -2.13815188  -2.26345910   1.20672565
 H  -2.44453538  -1.63721584  -0.40988649
 N   2.46543943  -0.65090412  -0.19477709
 H   2.06909602  -0.55288148   0.72728718
 C   3.89867210  -0.44243179  -0.25144021
 H   4.37156488  -1.30653279  -0.72786028
 C   4.33575205  -0.32680231   1.21769948
 C   4.24175523   0.80196658  -1.07590922
 H   3.66460938   0.74694091  -2.00130048
 H   3.93966300   1.71302308  -0.55662426
 O   3.51355405  -0.22360425   2.11472924
 C   5.68798135   0.89100813  -1.45697242
 O   6.47344130  -0.02755657  -1.39008064
 O   6.03502296   2.10754682  -1.90518947
 N   5.66220995  -0.32151983   1.43673933
 H   6.30881798  -0.52004417   0.67874869
 C   6.17083422  -0.23723184   2.79632050
 H   5.57690347   0.51510128   3.31607921
 C   7.63205390   0.18192500   2.70573825
 C   6.03543198  -1.58052353   3.52253170
 H   6.62697004  -2.32911082   2.99801049
 H   4.98927179  -1.87829784   3.46872902
 O   8.43392823  -0.46589237   2.05406956
 C   6.50314956  -1.50998358   4.93953734
 C   7.53012865  -2.12147269   5.59421695
 H   8.22338729  -2.84756338   5.18477806
 N   5.94641537  -0.67139641   5.87853217
 H   5.12062619  -0.10908370   5.74558174
 C   6.63042983  -0.83183706   7.04539544
 H   6.36979424  -0.29353373   7.94072712
 N   7.60189338  -1.70134391   6.91062603
 N   7.95401588   1.33296422   3.35795849
 H   7.37905825   1.63182166   4.13272661
 C   9.31474126   1.83234812   3.35468584
 H   9.80085362   1.41347619   2.47562493
 C   10.02525297   1.36167587   4.61857894
 C   9.29945382   3.36275125   3.31182175
 H   8.72162335   3.66528434   2.43646164
 H   8.75008484   3.69945503   4.19514871
 O   9.46458791   1.40002507   5.70431927
 C   10.66171746   4.05843372   3.27435554
 H   11.23405068   3.73402476   4.15171903
 C   11.45069224   3.69923977   2.02087072
 H   10.92620938   4.05772240   1.13111431
 H   12.44135288   4.16040758   2.04435704
 H   11.59327554   2.62112542   1.91714322
 C   10.46689211   5.56879886   3.37090665
 H   9.87647576   5.92833905   2.52499393
 H   11.42721215   6.08873306   3.36145674
 H   9.94629684   5.83978305   4.29171648
 N   11.32391517   0.98213150   4.46064232
 H   11.84662264   1.27083184   3.64680464
 C   12.22169372   0.91227090   5.58214732
 H   11.83877551   1.51965875   6.41525805
 C   13.56933473   1.51564106   5.07199712
 C   12.48866612  -0.50576438   6.09083318
 H   13.24941766  -0.43564182   6.86832802
 H   12.90004632  -1.12146223   5.28550260
 O   14.46003153   1.66681798   5.90826815
 C   11.21497594  -1.14316808   6.61745565
 H   10.76229260  -0.49220706   7.37025651
 H   10.50178070  -1.21177937   5.79776207
 C   11.42764792  -2.52622315   7.19643771
 H   10.46346391  -2.99473544   7.42535156
 H   11.93432811  -3.15215640   6.45904975
 N   12.26063977  -2.43288274   8.41429540
 H   12.04980017  -1.63576570   8.99634050
 N   12.61008336  -4.74005748   8.52777353
 H   12.66314736  -5.53947399   9.13998422
 H   11.98953568  -4.84784726   7.74025727
 N   13.20826639  -3.35685682   10.32646404
 H   13.82309248  -4.09823991   10.63213093
 H   13.56879425  -2.43330193   10.53330467
 C   12.67835301  -3.51440286   9.08527237
 O   13.59342220   1.78015803   3.84694214
 H   6.97299198   2.05528922  -2.13509266
