21
conf-432
 N  -2.21362095  -10.11049633  -3.15887960
 H  -2.48735909  -10.24724909  -4.13155793
 H  -1.19788265  -10.00033307  -3.11283761
 H  -2.50498132  -10.90681712  -2.58999905
 C  -2.80152164  -8.87772629  -2.60178494
 H  -3.83303080  -8.76051705  -2.94482573
 C  -1.94810150  -7.69178526  -3.03730068
 C  -2.79309509  -8.98404633  -1.08744396
 H  -3.26626685  -8.10781127  -0.62983989
 H  -1.75216990  -9.04086273  -0.75117241
 O  -0.75409678  -7.82163578  -3.26725319
 O  -3.49225245  -10.18393581  -0.75930387
 H  -3.30155814  -10.40645932   0.15488048
 N  -2.57793676  -6.49829959  -3.10091532
 H  -3.54830704  -6.37566006  -2.85300342
 C  -1.86598458  -5.28175629  -3.42309806
 H  -0.92549106  -5.26324389  -2.86465686
 C  -2.77290246  -4.13554139  -2.96551304
 C  -1.53988665  -5.19308179  -4.91346133
 H  -0.98866402  -4.27747272  -5.13516582
 H  -2.45727490  -5.20464159  -5.50723059
 H  -0.93148257  -6.05166579  -5.19481240
 O  -3.95501400  -4.33153107  -2.70445313
 N  -2.20792774  -2.92023049  -2.90714576
 H  -1.21789797  -2.79679152  -3.06519043
 C  -2.94316902  -1.68137374  -2.68686663
 H  -3.87447094  -1.68843747  -3.25686361
 C  -2.00654329  -0.59545396  -3.19395326
 C  -3.33338949  -1.48111611  -1.20078672
 H  -2.46298499  -1.76658492  -0.59521919
 O  -0.78960867  -0.72050935  -3.09885936
 C  -3.75366605  -0.07062361  -0.84107164
 H  -2.94145176   0.65237322  -0.95007013
 H  -4.59960234   0.24098528  -1.45980038
 H  -4.08034016  -0.07471219   0.20019397
 O  -4.43242102  -2.31057510  -0.87220775
 H  -4.43083768  -3.09637453  -1.44246835
 N  -2.58322252   0.50310531  -3.72819747
 H  -3.57495849   0.63534207  -3.60600454
 C  -1.78594556   1.68037300  -4.06475846
 H  -0.85455056   1.29749919  -4.48563582
 C  -1.48766429   2.43120299  -2.76164714
 C  -2.48505990   2.56680682  -5.10094559
 H  -3.39718067   2.94327701  -4.63279966
 O  -2.18897132   3.35142824  -2.34269013
 C  -1.59352164   3.75104830  -5.48382523
 H  -0.66564554   3.38588544  -5.93185574
 H  -1.34328023   4.36041814  -4.61499948
 H  -2.09862781   4.38533326  -6.21629970
 C  -2.84564281   1.77823186  -6.35690785
 H  -1.93883802   1.38679944  -6.82598954
 H  -3.51157544   0.94231828  -6.14401273
 H  -3.34290971   2.43107078  -7.07830429
 N  -0.41906886   1.97085601  -2.07138852
 H   0.06897677   1.13238143  -2.35997727
 C  -0.03354694   2.57102367  -0.81077892
 H  -0.38371844   3.60618155  -0.84086051
 C   1.48079344   2.55099617  -0.71919722
 C  -0.70700939   1.89669204   0.40647345
 H  -1.77202905   2.12951461   0.27923465
 O   2.11058801   1.50511232  -0.87368647
 C  -0.24978834   2.48129953   1.74866863
 H   0.81021760   2.25322090   1.89082007
 H  -0.78387936   1.93424155   2.53007625
 C  -0.51140093   0.38617059   0.43817860
 H   0.54096979   0.17356096   0.63224539
 H  -0.79675333  -0.08985426  -0.50014855
 H  -1.10566626  -0.05542147   1.24089091
 C  -0.49903808   3.96999517   1.94272377
 H  -0.19878260   4.27683484   2.94689243
 H   0.07603181   4.57909381   1.24180365
 H  -1.55616796   4.21804041   1.81617928
 N   2.08091160   3.73105040  -0.46902035
 H   1.52958461   4.57217419  -0.42798275
 C   3.49627728   3.82675978  -0.16499173
 H   4.03694813   3.27508471  -0.93590577
 C   3.76615085   3.19959173   1.20392696
 C   3.93076197   5.29766602  -0.13613313
 H   3.45877926   5.79570160   0.70911336
 H   5.01440797   5.35186037  -0.02792823
 O   3.17955610   3.59561558   2.21179547
 C   3.49218007   5.97150509  -1.40452750
 O   2.50116861   6.64794793  -1.52581623
 O   4.31218234   5.68061329  -2.43901931
 N   4.68102922   2.21306350   1.20119147
 H   5.14005948   1.95348371   0.34458790
 C   5.09401469   1.47033695   2.37778423
 H   5.42987522   2.16400712   3.15476382
 C   6.27924343   0.62165627   1.89349392
 C   3.91557382   0.65719043   2.95129353
 H   3.57635544  -0.04354764   2.18291523
 H   3.10001701   1.34958683   3.14644643
 O   6.42821586   0.35878232   0.70439990
 C   4.24515709  -0.11272713   4.18127837
 C   4.16311396   0.13114423   5.52404102
 H   3.72001659   0.98372195   6.01705272
 N   4.87105387  -1.32141426   4.08836741
 H   5.10400117  -1.78963283   3.21097439
 C   5.20378846  -1.72273836   5.33072991
 H   5.79278296  -2.61110283   5.48313899
 N   4.76461331  -0.88126984   6.24194643
 N   7.16750600   0.21579268   2.82897659
 H   6.85041485   0.10976635   3.78166734
 C   8.26085945  -0.67463284   2.45030459
 H   8.50070502  -0.45899175   1.40922543
 C   7.83999681  -2.14898836   2.55169037
 C   9.47861778  -0.42632800   3.33941738
 H   9.78796588   0.61060862   3.19642939
 H   9.15973555  -0.53412212   4.37990181
 O   7.59263605  -2.66105755   3.65385188
 C   10.66819060  -1.36170972   3.09239503
 H   10.32232460  -2.37023857   3.36169243
 C   11.11494967  -1.38932864   1.63525462
 H   11.44146195  -0.39547866   1.31139016
 H   11.95727405  -2.07540238   1.51149247
 H   10.32788627  -1.72779018   0.96138523
 C   11.82967509  -0.97366044   4.00420659
 H   12.18642617   0.02689817   3.74981787
 H   12.66198863  -1.67150128   3.89133763
 H   11.52946039  -0.97336451   5.05421149
 N   7.74995454  -2.80628071   1.35510490
 H   8.32210261  -2.46288248   0.59254028
 C   7.80823049  -4.25399830   1.36736240
 H   8.15822707  -4.59937104   2.35153150
 C   8.86144954  -4.62699875   0.28395095
 C   6.47931519  -4.93368492   1.03943203
 H   6.67798719  -6.00197620   0.92803215
 H   6.11382025  -4.58335011   0.07068586
 O   9.16140853  -5.81611409   0.18691700
 C   5.42548622  -4.69118489   2.13415605
 H   5.09449092  -5.65132961   2.53985114
 H   5.89061750  -4.16308676   2.96809108
 C   4.20099960  -3.92593034   1.66465370
 H   3.68080910  -4.50932529   0.89278307
 H   3.49800899  -3.80886159   2.49853639
 N   4.56075013  -2.58164401   1.15717332
 H   5.49684230  -2.50523183   0.77673336
 N   2.34310135  -2.02138014   0.76298387
 H   1.67090350  -1.64266358   0.11655455
 H   2.07104472  -2.89361623   1.18679241
 N   4.05301157  -0.90224723  -0.36438220
 H   3.40381015  -0.16036940  -0.60707424
 H   5.00450228  -0.56749139  -0.24858348
 C   3.65536364  -1.83638365   0.49010791
 O   9.29550193  -3.65731835  -0.38119358
 H   3.93756557   6.12383419  -3.21152333
