21
conf-497
 N  -11.62647053  -4.09140801  -6.50266527
 H  -11.74264549  -4.75679220  -7.26741594
 H  -11.22003236  -4.59015554  -5.70786562
 H  -12.53213429  -3.70332922  -6.23781042
 C  -10.68502395  -3.01543568  -6.87319825
 H  -10.94138935  -2.60932706  -7.85453691
 C  -9.27250208  -3.57175118  -6.87821459
 C  -10.76863818  -1.89794844  -5.84638746
 H  -10.03324629  -1.11492226  -6.06815719
 H  -10.54029647  -2.32489646  -4.86121371
 O  -8.94829276  -4.50199312  -6.15873750
 O  -12.10061967  -1.39612962  -5.88935706
 H  -12.21756691  -0.77456919  -5.16696709
 N  -8.39332182  -2.93745254  -7.71568065
 H  -8.68554874  -2.03712684  -8.05803402
 C  -6.96717079  -3.01000061  -7.43624972
 H  -6.78752092  -3.98593684  -6.98681543
 C  -6.60511076  -1.91268709  -6.42830630
 C  -6.15936250  -2.86283171  -8.71900822
 H  -5.08985691  -2.95950063  -8.51880281
 H  -6.33664960  -1.88497794  -9.17455115
 H  -6.45223216  -3.63600456  -9.42936170
 O  -7.25543714  -0.87311517  -6.33087271
 N  -5.49410024  -2.13498640  -5.69714564
 H  -4.92239828  -2.95275689  -5.84543553
 C  -4.89950946  -1.11635805  -4.85741845
 H  -5.11572794  -0.13708557  -5.29580547
 C  -3.39651829  -1.41336020  -4.84612930
 C  -5.51643955  -1.13134377  -3.43439435
 H  -5.23301259  -2.07292745  -2.95066251
 O  -2.98230535  -2.55265656  -4.98941024
 C  -5.06966047   0.05253554  -2.59321749
 H  -3.99299995   0.07231484  -2.43246354
 H  -5.37089640   0.98640614  -3.08556556
 H  -5.57104131   0.00857251  -1.62472745
 O  -6.92935073  -1.13150776  -3.51341809
 H  -7.16761903  -0.72248777  -4.35258145
 N  -2.58612598  -0.33791462  -4.66396967
 H  -2.98335919   0.53269271  -4.34869516
 C  -1.18885998  -0.48682107  -4.31467597
 H  -1.03762196  -1.51562644  -3.96826582
 C  -0.90730637   0.49059690  -3.17130376
 C  -0.23458894  -0.26326281  -5.50678696
 H   0.76733062  -0.45435596  -5.10548351
 O  -1.71822536   1.34124980  -2.83093354
 C  -0.50564513  -1.27525881  -6.61642078
 H  -1.44406478  -1.04388975  -7.12095610
 H  -0.57310299  -2.29040781  -6.22234368
 H   0.29129113  -1.23824153  -7.36176477
 C  -0.29074210   1.16479454  -6.04130904
 H  -1.27721885   1.36174238  -6.46809349
 H  -0.10616706   1.89957258  -5.25300147
 H   0.45213675   1.30456974  -6.83010537
 N   0.31713187   0.37748276  -2.60844505
 H   0.90695782  -0.40726950  -2.82775124
 C   0.70555423   1.17609571  -1.45507006
 H   0.39633847   2.20445468  -1.65631862
 C   2.21694805   1.09263311  -1.38398664
 C   0.02105975   0.73211044  -0.14475676
 H  -1.02022385   1.05041431  -0.25837224
 O   2.78800639   0.05469249  -1.05879734
 C   0.58570951   1.45531160   1.08817712
 H   1.66847683   1.29808090   1.16550321
 H   0.13436554   0.98386817   1.96767129
 C   0.00548090  -0.78437441   0.04863859
 H   1.00252628  -1.20268380  -0.04825260
 H  -0.63849523  -1.26023723  -0.69182479
 H  -0.38783412  -1.03440062   1.03720685
 C   0.27840163   2.95383942   1.14217543
 H   0.32445405   3.31246818   2.17415051
 H   0.99563968   3.53613031   0.56339699
 H  -0.72825677   3.16053587   0.77311457
 N   2.89458238   2.22209632  -1.72558385
 H   2.34069819   3.06218479  -1.72963259
 C   4.26314543   2.39452311  -1.21900904
 H   4.83526313   1.52741834  -1.53399147
 C   4.21692476   2.46536298   0.31817414
 C   4.86100055   3.69259627  -1.75384493
 H   4.69405215   3.74788921  -2.82881972
 H   4.34947915   4.53637449  -1.28413071
 O   3.37375795   3.18288224   0.90291711
 C   6.33191679   3.86469654  -1.52151689
 O   6.89298419   4.92976576  -1.48564618
 O   6.99620648   2.69506068  -1.39810467
 N   5.13111571   1.67470842   0.93905369
 H   5.91015484   1.36111542   0.38175103
 C   5.33576436   1.77622115   2.37016333
 H   4.39075694   2.13161837   2.79004131
 C   6.43847287   2.80988097   2.62241985
 C   5.69318120   0.41642871   2.94361956
 H   6.04728113   0.52154832   3.97440993
 H   6.53504613   0.01124257   2.38067260
 O   7.59651591   2.47813819   2.87808375
 C   4.53275555  -0.52577573   2.96155638
 C   4.06259321  -1.33563892   3.95239233
 H   4.46497959  -1.47516364   4.94330012
 N   3.66986646  -0.72057740   1.91304015
 H   3.72264912  -0.31973988   0.98395440
 C   2.73203737  -1.61131552   2.30778937
 H   1.93866401  -1.90133931   1.65447612
 N   2.93682430  -2.01159702   3.54262050
 N   6.06912497   4.09761832   2.45530056
 H   5.09744414   4.30786265   2.26387539
 C   7.01324217   5.18745876   2.59613949
 H   7.98436014   4.81530498   2.26523921
 C   7.13303481   5.60824009   4.06088518
 C   6.56556883   6.37985125   1.75018100
 H   6.35366925   6.01123735   0.74806491
 H   5.62563793   6.74358421   2.17294265
 O   6.16214495   5.76369594   4.78623035
 C   7.56001419   7.53898748   1.65626249
 H   7.77449513   7.88539717   2.67422284
 C   8.87226816   7.11488409   1.00463387
 H   8.69995345   6.78877224  -0.02465630
 H   9.57923520   7.94970871   0.98900416
 H   9.35502883   6.29479915   1.54604312
 C   6.92603769   8.69154085   0.88300651
 H   6.68244210   8.36961842  -0.13266433
 H   7.60762866   9.54201136   0.81731286
 H   6.00814079   9.03271756   1.36557756
 N   8.41498573   5.84320295   4.46373356
 H   9.10571760   6.15429189   3.79480126
 C   8.70895205   6.42944541   5.74246527
 H   7.82878819   6.96397897   6.12568514
 C   9.86556759   7.43903971   5.46861775
 C   9.17966360   5.41003491   6.78419500
 H   9.59194382   5.96225610   7.63386840
 H   9.99769377   4.82693635   6.35515576
 O   10.25213963   8.11558656   6.42144034
 C   8.03937415   4.50472184   7.22466202
 H   7.32438972   5.08123322   7.82177648
 H   7.49080530   4.17436502   6.34993684
 C   8.46522039   3.28579384   8.03529084
 H   8.90063706   3.58815377   8.98846027
 H   7.59052861   2.67246068   8.26776528
 N   9.48525693   2.43840361   7.38466788
 H   10.44079512   2.59663816   7.66498679
 N   8.07100350   1.68081779   5.67622584
 H   8.02507215   1.69928568   4.65889296
 H   7.34702177   2.23980344   6.10586791
 N   10.35709711   1.26331038   5.56697806
 H   10.12637656   0.51798175   4.92190610
 H   11.19230370   1.09040209   6.11490786
 C   9.29692527   1.80863352   6.22242364
 O   10.27541340   7.45388234   4.28240321
 H   7.93246931   2.90457829  -1.28638897
