21
conf-102
 N  -8.31420099  -8.96556528  -6.48730235
 H  -7.68804273  -9.20969625  -7.25475344
 H  -8.08705507  -9.59905122  -5.72167263
 H  -9.27294142  -9.13283525  -6.78700994
 C  -8.09202162  -7.56440591  -6.07981896
 H  -8.28027823  -6.90793764  -6.93509732
 C  -6.61120302  -7.41376853  -5.68132871
 C  -9.03889027  -7.14290857  -4.96855272
 H  -8.71089218  -7.56932419  -4.01188506
 H  -10.03217479  -7.54380410  -5.19923463
 O  -5.82788005  -8.34340989  -5.80044769
 O  -9.07273600  -5.71805762  -4.93012475
 H  -9.56092121  -5.44613180  -4.14862376
 N  -6.24926186  -6.20454654  -5.21347139
 H  -6.93430485  -5.47648852  -5.05693599
 C  -4.88975944  -5.92079533  -4.82156081
 H  -4.49975552  -6.76780187  -4.24911416
 C  -4.93679514  -4.67214328  -3.93604475
 C  -3.97941281  -5.70272993  -6.03012611
 H  -2.95845343  -5.49496087  -5.70622420
 H  -4.33655045  -4.86193019  -6.63052583
 H  -3.97834610  -6.59824113  -6.64915876
 O  -5.90842582  -3.93819986  -3.90436663
 N  -3.80444876  -4.42913751  -3.23421762
 H  -3.05105541  -5.09542051  -3.22386219
 C  -3.64926196  -3.26992395  -2.38775875
 H  -4.39464935  -2.54080538  -2.69518565
 C  -2.23591943  -2.72704655  -2.56947966
 C  -3.87504305  -3.60850169  -0.89545569
 H  -3.57567550  -2.73145179  -0.30355613
 O  -1.25956929  -3.48389207  -2.54849639
 C  -5.32548006  -3.93601047  -0.61748236
 H  -5.96946891  -3.07905196  -0.83953860
 H  -5.64745353  -4.77324633  -1.23550214
 H  -5.44269579  -4.21516802   0.42891174
 O  -3.11957859  -4.74816824  -0.51193814
 H  -2.18776335  -4.55802009  -0.67436857
 N  -2.12970235  -1.38679484  -2.72247519
 H  -2.93072391  -0.78940771  -2.55882946
 C  -0.85514360  -0.69496248  -2.60115692
 H  -0.13442887  -1.37233720  -2.13228130
 C  -1.14250239   0.51461059  -1.70483309
 C  -0.27562759  -0.27485179  -3.96959093
 H  -0.97920327   0.44041440  -4.40380596
 O  -2.24051457   1.05287801  -1.70140619
 C   1.09898382   0.38022298  -3.84260120
 H   1.80501734  -0.34413562  -3.42037655
 H   1.10076460   1.27231241  -3.21490571
 H   1.46598972   0.66227596  -4.83260129
 C  -0.15669553  -1.48147451  -4.90019932
 H   0.51171144  -2.22434861  -4.45884892
 H  -1.11773666  -1.95771996  -5.08821470
 H   0.26063613  -1.16957627  -5.85955460
 N  -0.11281673   0.96397306  -0.95223338
 H   0.82431231   0.60524969  -1.04321012
 C  -0.22252315   2.19195691  -0.19647011
 H  -0.80272432   2.90094447  -0.78920880
 C   1.20033058   2.69288967  -0.02325040
 C  -0.96556573   1.98587907   1.14579419
 H  -1.86588977   1.43363583   0.85755926
 O   2.14981010   1.91879131  -0.10384368
 C  -1.42588793   3.29226170   1.79608424
 H  -0.56124476   3.87080098   2.13444082
 H  -1.97153488   3.01542392   2.70418742
 C  -0.15459153   1.15138521   2.13585213
 H   0.72957820   1.69847254   2.45805348
 H   0.16615809   0.20933896   1.68721695
 H  -0.75687612   0.92713247   3.01787514
 C  -2.33387583   4.14298952   0.91839259
 H  -2.81182526   4.93120778   1.50246275
 H  -1.78379961   4.62507261   0.10311791
 H  -3.12399851   3.53153222   0.46912733
 N   1.34785454   3.99545369   0.27310651
 H   0.52970322   4.57692032   0.35973455
 C   2.60555778   4.51330621   0.78371763
 H   3.35740600   4.41357962   0.00033757
 C   3.05253763   3.70123425   2.00851263
 C   2.43246836   5.98723304   1.19313668
 H   1.84210294   6.02334558   2.10833847
 H   3.40851896   6.43703332   1.37237205
 O   2.27272355   3.42615235   2.92899683
 C   1.70477609   6.72562299   0.11002722
 O   0.51434256   6.92944478   0.08927532
 O   2.52625709   7.10041655  -0.89485385
 N   4.34835381   3.33639849   2.01660736
 H   5.02521173   3.72077328   1.37614260
 C   4.90953770   2.63945370   3.14521507
 H   4.57659940   3.13053180   4.06434152
 C   6.43238512   2.75717671   3.00407367
 C   4.43587435   1.17430132   3.22662383
 H   3.34582808   1.20279960   3.29330079
 H   4.81496958   0.72541879   4.14874829
 O   6.94616411   3.34262370   2.06355374
 C   4.86518743   0.34209337   2.06826602
 C   5.79763693  -0.63743029   1.95725535
 H   6.42072590  -1.00867642   2.75691993
 N   4.37599470   0.50496791   0.80011751
 H   3.65064546   1.15539181   0.52940299
 C   5.01480746  -0.36629389  -0.00453404
 H   4.80187699  -0.42805599  -1.06337180
 N   5.89623165  -1.08655696   0.65713772
 N   7.15401104   2.17218893   3.99210351
 H   6.69020914   1.58555218   4.66457760
 C   8.57684598   1.98202842   3.86576405
 H   8.86037119   2.28778747   2.85542102
 C   8.89287332   0.48410360   4.02181084
 C   9.39056821   2.79668754   4.86781527
 H   9.14579097   2.44017987   5.87181595
 H   10.45201995   2.57667831   4.71044482
 O   8.08427573  -0.31996591   4.48067482
 C   9.19192480   4.31155040   4.79443982
 H   8.12793610   4.53152361   4.90761486
 C   9.93658858   4.97353097   5.94947048
 H   11.00687895   4.76257081   5.88181584
 H   9.80313647   6.05785336   5.93544484
 H   9.57557901   4.60257188   6.91124357
 C   9.66298995   4.87822524   3.45788163
 H   10.73315475   4.69053771   3.32910407
 H   9.50722864   5.95982683   3.42809159
 H   9.13383234   4.43972099   2.61204579
 N   10.14706548   0.16402029   3.60538357
 H   10.87429694   0.86980298   3.61042622
 C   10.74284334  -1.11988513   3.84561841
 H   10.27135663  -1.62559994   4.70211003
 C   12.23372670  -0.80695806   4.19011269
 C   10.69495831  -2.04519917   2.62931444
 H   11.33736722  -2.90534236   2.83620528
 H   11.11753086  -1.52148474   1.76651197
 O   12.95359445  -1.75662407   4.49555253
 C   9.27209837  -2.48690857   2.32026238
 H   8.89731352  -3.10942174   3.13358778
 H   8.63034416  -1.61400746   2.28258249
 C   9.14940077  -3.24496429   1.00955595
 H   9.47700322  -2.59871497   0.19002095
 H   9.80174499  -4.12512613   0.99937585
 N   7.76762336  -3.63224084   0.68079151
 H   7.15525710  -2.84101379   0.44632152
 N   7.78407918  -5.39563785   2.21177594
 H   7.40836890  -6.30047217   2.44806112
 H   8.78595556  -5.30784594   2.26155842
 N   5.81196520  -4.79012172   1.10478252
 H   5.38055668  -5.64308769   1.42725899
 H   5.43007539  -4.39219417   0.25621554
 C   7.13494535  -4.61872300   1.32497757
 O   12.52874378   0.41025317   4.12228719
 H   1.96830113   7.53515603  -1.55278264
