21
conf-883
 N  -10.91657200  -1.89989820  -7.86628208
 H  -11.22860986  -2.58115077  -8.55877516
 H  -10.73162954  -2.38913924  -6.98710557
 H  -11.63924545  -1.19453733  -7.71556081
 C  -9.66728472  -1.23696008  -8.28115492
 H  -9.72530133  -0.95266564  -9.33568823
 C  -8.48101709  -2.16266603  -8.06601042
 C  -9.47745475   0.02829692  -7.44243638
 H  -8.51629067   0.51422445  -7.66161976
 H  -9.48089648  -0.26463870  -6.38687297
 O  -8.44705902  -2.97466417  -7.15835581
 O  -10.57195115   0.91636379  -7.59717335
 H  -10.55085228   1.27978951  -8.48455767
 N  -7.43244795  -1.95173494  -8.93037010
 H  -7.54675288  -1.15744442  -9.53831958
 C  -6.06206334  -2.07098174  -8.43432226
 H  -6.02138185  -2.97930324  -7.83418830
 C  -5.73787705  -0.83193087  -7.55392926
 C  -5.09053758  -2.11462740  -9.60257114
 H  -4.07373488  -2.30361891  -9.25071944
 H  -5.10225691  -1.15173029  -10.11758012
 H  -5.37632047  -2.89983633  -10.30150574
 O  -6.09371008   0.31304744  -7.88921828
 N  -5.03210767  -1.12027894  -6.41851909
 H  -4.50352608  -1.98262553  -6.37799126
 C  -4.45997854  -0.07316655  -5.59437531
 H  -4.35407799   0.84172571  -6.18681312
 C  -3.08278417  -0.58888157  -5.16359154
 C  -5.34637061   0.24182847  -4.36858793
 H  -4.74382932   0.78815445  -3.63472025
 O  -2.72728832  -1.73530686  -5.38020774
 C  -6.54583209   1.08482215  -4.76284219
 H  -6.22442453   2.08703800  -5.05880638
 H  -7.06117976   0.63906884  -5.62377099
 H  -7.24689154   1.16538153  -3.93427702
 O  -5.74898908  -0.94868013  -3.72411713
 H  -6.10729335  -1.51577814  -4.41661288
 N  -2.30137275   0.31826436  -4.53379052
 H  -2.65502455   1.23735576  -4.31832896
 C  -1.04009409  -0.04685416  -3.91273671
 H  -1.02351977  -1.13471750  -3.80392364
 C  -0.99736410   0.62153310  -2.54134520
 C   0.17954613   0.36719188  -4.76647256
 H   0.03933960   1.42139248  -5.01493886
 O  -1.39002835   1.77004984  -2.38058587
 C   1.50401542   0.22736064  -4.00953828
 H   1.64179401  -0.80549472  -3.66786943
 H   1.56036455   0.88648825  -3.14098864
 H   2.33678179   0.47759365  -4.67017132
 C   0.22071897  -0.45728620  -6.04966895
 H   0.41645708  -1.50497589  -5.80244322
 H  -0.72112700  -0.41341521  -6.59619283
 H   1.01827408  -0.10426034  -6.70539852
 N  -0.46149186  -0.13657199  -1.54396139
 H  -0.01075487  -1.00299607  -1.79943127
 C   0.05740209   0.46413639  -0.32676073
 H  -0.06927245   1.54483732  -0.40395123
 C   1.54169885   0.11156379  -0.25005479
 C  -0.70126942  -0.02158076   0.92731898
 H  -0.61460708  -1.11432070   0.93140334
 O   1.96181278  -0.97919064  -0.61341423
 C  -2.19920878   0.31092025   0.84318461
 H  -2.69364955  -0.18606565   1.68384693
 H  -2.61903530  -0.13799429  -0.06165340
 C  -0.09289668   0.50857789   2.22759569
 H  -0.02628096   1.60166858   2.21716572
 H   0.91024289   0.10921987   2.40149222
 H  -0.71876013   0.21904539   3.07612112
 C  -2.53145394   1.79782226   0.87629228
 H  -3.61038275   1.94790576   0.80615442
 H  -2.19408493   2.25874331   1.80764320
 H  -2.06815714   2.33248280   0.04390498
 N   2.33615900   1.08443428   0.26914242
 H   1.89640382   1.88331041   0.70163591
 C   3.68595296   0.82069977   0.71125753
 H   3.83864737  -0.25824777   0.75480404
 C   3.85911655   1.42938021   2.09401195
 C   4.73350953   1.43203663  -0.24058456
 H   4.51098973   2.48759039  -0.41174843
 H   5.72505516   1.36065637   0.21457588
 O   3.19748893   2.38180626   2.47751755
 C   4.75376344   0.71859186  -1.56120409
 O   4.46098704   1.20195570  -2.62732747
 O   5.14581925  -0.56471194  -1.42488215
 N   4.83660059   0.85581493   2.86045339
 H   5.49346138   0.28332069   2.36185442
 C   5.42546041   1.61808512   3.96262398
 H   4.60733140   1.97275998   4.59253140
 C   6.18441642   2.79328824   3.35618101
 C   6.37285437   0.70181205   4.75200528
 H   7.13399098   0.32105539   4.06724588
 H   5.80244493  -0.14937230   5.11833169
 O   7.09352535   2.59994728   2.55182256
 C   7.00636178   1.39265097   5.91744103
 C   6.81351662   1.30985329   7.26856275
 H   6.18777329   0.61683021   7.80689013
 N   7.90990321   2.41022427   5.75407162
 H   8.20157877   2.82859129   4.88132998
 C   8.15562978   2.94764818   6.96985438
 H   8.77626975   3.82148228   7.06437291
 N   7.53977611   2.28794232   7.92524558
 N   5.77112871   4.02562620   3.71437141
 H   5.20555497   4.15047964   4.53193964
 C   6.39051405   5.19206965   3.13705585
 H   6.63137804   4.93757001   2.10157354
 C   7.71431131   5.55830733   3.83608132
 C   5.45349069   6.39950753   3.20260021
 H   5.43350621   6.72120115   4.24740636
 H   5.90015082   7.21807814   2.62879064
 O   7.95747263   5.29564436   5.00727038
 C   4.03386748   6.15194065   2.69064865
 H   3.57018337   5.38281171   3.31842600
 C   3.21885957   7.43419177   2.81928808
 H   3.65645494   8.22249410   2.20145020
 H   2.18725317   7.28323840   2.49222340
 H   3.19616641   7.78616598   3.85338151
 C   4.03927982   5.64668455   1.25241875
 H   4.49476284   6.38687971   0.58842619
 H   3.01766047   5.46732295   0.90597603
 H   4.59100195   4.70680908   1.15500000
 N   8.55915093   6.27629605   3.03269660
 H   8.16427992   6.79232565   2.25402288
 C   9.61822077   7.05405059   3.61637026
 H   9.42740930   7.19439170   4.69225768
 C   9.56160456   8.43629949   2.89661002
 C   11.00743159   6.44724107   3.43433355
 H   11.74046646   7.22203154   3.67910307
 H   11.14840770   6.17999240   2.38536176
 O   10.36186388   9.29240321   3.27522080
 C   11.19827992   5.23491701   4.33320469
 H   11.15410649   5.56602354   5.37829253
 H   10.35397986   4.55515591   4.20223160
 C   12.52478649   4.51173383   4.13742760
 H   13.35364774   5.20603262   4.28229750
 H   12.62971249   3.73609435   4.89806480
 N   12.63959956   3.84197600   2.82662171
 H   11.89888898   3.18454185   2.62729842
 N   14.01907193   5.43988850   1.78529167
 H   14.66783508   5.61190202   1.03294966
 H   14.32615081   5.78067860   2.68430650
 N   13.09444038   3.67127071   0.56227144
 H   13.73900715   3.88676523  -0.18394922
 H   12.81841500   2.69857169   0.59958853
 C   13.27458605   4.31138543   1.74663236
 O   8.67977753   8.53014631   2.00870750
 H   5.11166296  -0.95821179  -2.30463961
