21
conf-669
 N  -10.67973017  -6.08265728  -7.90735346
 H  -10.68650256  -5.52314333  -8.75981361
 H  -10.00426063  -6.84296591  -8.01515723
 H  -11.60859971  -6.46450881  -7.72282525
 C  -10.24441256  -5.28713127  -6.74386041
 H  -10.68155578  -4.28580998  -6.78396870
 C  -8.72166817  -5.21334652  -6.74680369
 C  -10.71948181  -5.98461025  -5.48201804
 H  -10.45857418  -5.40364513  -4.59012892
 H  -10.22979624  -6.96266042  -5.42368931
 O  -8.04569207  -6.10905747  -7.23304273
 O  -12.13256662  -6.13777610  -5.60852418
 H  -12.42843723  -6.77749765  -4.95672466
 N  -8.17803138  -4.13443285  -6.14191512
 H  -8.73165222  -3.43083535  -5.67676504
 C  -6.74664285  -3.98518033  -6.00510382
 H  -6.31937317  -4.93861917  -5.68064467
 C  -6.53858456  -2.92293388  -4.92070301
 C  -6.08583841  -3.58875041  -7.32439575
 H  -5.00520776  -3.49748527  -7.20122907
 H  -6.48222721  -2.63382587  -7.67818891
 H  -6.29654717  -4.35330452  -8.07112335
 O  -7.47003427  -2.22694011  -4.53001879
 N  -5.28435793  -2.78823150  -4.46122272
 H  -4.55958538  -3.43320964  -4.74075114
 C  -4.84219286  -1.72947625  -3.56414043
 H  -5.22835120  -0.76421148  -3.90382043
 C  -3.32030828  -1.75813665  -3.65382179
 C  -5.36057508  -1.91699452  -2.10888200
 H  -5.35537618  -2.99357238  -1.89635068
 O  -2.71217451  -2.80533145  -3.81715444
 C  -4.54578182  -1.19798203  -1.04789802
 H  -3.55371642  -1.64630985  -0.93140184
 H  -4.42729444  -0.14251016  -1.30291713
 H  -5.08098806  -1.26428626  -0.10046214
 O  -6.67901865  -1.40840578  -2.00811924
 H  -7.15332322  -1.62312185  -2.82736526
 N  -2.70884099  -0.54958338  -3.51719637
 H  -3.25932084   0.23366146  -3.20389933
 C  -1.30846729  -0.45336931  -3.15657224
 H  -0.98092267  -1.44752143  -2.83865234
 C  -1.22400225   0.53274125  -1.98347048
 C  -0.41403479  -0.03022548  -4.33781927
 H   0.61226944  -0.06038695  -3.95254144
 O  -2.14455438   1.30330086  -1.72898235
 C  -0.52037777  -1.03942619  -5.47891138
 H  -1.49718467  -0.96989942  -5.95789643
 H  -0.39082023  -2.06118600  -5.11840624
 H   0.23915379  -0.83339031  -6.23534586
 C  -0.71392286   1.38520559  -4.81975132
 H  -1.72530906   1.43356129  -5.23046762
 H  -0.63759085   2.11001239  -4.00582289
 H  -0.01557933   1.67240949  -5.60898468
 N  -0.06332602   0.49987435  -1.28795349
 H   0.72376856  -0.03506256  -1.62368944
 C   0.23272123   1.41857929  -0.20218681
 H  -0.51852578   2.20786948  -0.20234339
 C   1.61394624   1.98717621  -0.48564597
 C   0.20924770   0.72216812   1.18022177
 H   0.97357332  -0.06469734   1.13134505
 O   2.51996811   1.25670158  -0.88243654
 C  -1.13236487   0.02788457   1.45957806
 H  -1.01221864  -0.55135671   2.38024634
 H  -1.33274591  -0.70405663   0.66990863
 C   0.57196664   1.67386864   2.32297062
 H  -0.01117136   2.59958990   2.27387201
 H   1.62815858   1.93179238   2.31489417
 H   0.35292809   1.19446107   3.28229828
 C  -2.32215651   0.96680937   1.61259621
 H  -3.24168501   0.40149423   1.78495492
 H  -2.18333842   1.63749441   2.46355920
 H  -2.47141830   1.58088171   0.72288020
 N   1.80544195   3.29061103  -0.22193231
 H   1.10675325   3.81989158   0.28232592
 C   3.13552325   3.87316713  -0.29421125
 H   3.63939004   3.33533358  -1.09927835
 C   3.92558411   3.63710764   0.99656051
 C   3.05586183   5.35961507  -0.63076555
 H   4.05875173   5.78694062  -0.68370219
 H   2.59175984   5.46157541  -1.61426256
 O   4.39236256   4.55433527   1.66692765
 C   2.23003022   6.15561174   0.34056758
 O   1.32649064   5.72035544   1.02265859
 O   2.58746443   7.45431939   0.34164079
 N   4.04911565   2.34226025   1.37230947
 H   3.83891223   1.61403017   0.69618886
 C   4.79181149   2.00999822   2.56571739
 H   4.60857732   2.83327974   3.26110672
 C   6.28113484   1.95038169   2.25345887
 C   4.31032608   0.71221656   3.19142455
 H   4.41272979  -0.10293017   2.47400408
 H   3.23554970   0.81692945   3.39017191
 O   6.86433388   0.90040875   2.02257727
 C   5.05276067   0.35052712   4.44847012
 C   5.12322128  -0.82613851   5.13694711
 H   4.63846035  -1.76236680   4.90078467
 N   5.84825608   1.22073251   5.16116223
 H   6.11972208   2.17027528   4.92050630
 C   6.35028193   0.54146294   6.21714136
 H   6.99523339   1.01558700   6.93158741
 N   5.93741274  -0.70600786   6.24820129
 N   6.89776948   3.16208831   2.24313558
 H   6.34547534   3.97287742   2.48663451
 C   8.29186439   3.24279236   2.61464376
 H   8.71550181   2.23714240   2.53279572
 C   8.39424795   3.65633801   4.09638670
 C   9.07170292   4.19396335   1.71951873
 H   8.70175383   5.20707492   1.89532636
 H   10.12305191   4.18021980   2.02445212
 O   7.41684281   3.96750401   4.76874616
 C   8.98162853   3.86325315   0.22793556
 H   7.93712728   3.97094185  -0.08090224
 C   9.81995793   4.85985393  -0.56357493
 H   10.87322703   4.77294892  -0.28563831
 H   9.73916307   4.68030882  -1.63850758
 H   9.50121571   5.88675465  -0.36954018
 C   9.41908803   2.43092028  -0.06019646
 H   10.45764859   2.28154903   0.25451112
 H   9.36481328   2.22559493  -1.13277732
 H   8.79927356   1.69432129   0.45105929
 N   9.65509993   3.61682186   4.58911384
 H   10.46751357   3.64485856   3.98580720
 C   9.97181114   4.18633046   5.86723887
 H   9.42437821   5.12699469   6.00836457
 C   11.49424892   4.49524531   5.79843883
 C   9.66303097   3.27939681   7.05300224
 H   8.58562466   3.08647775   7.02838600
 H   9.88094872   3.84559805   7.96238256
 O   12.03979827   4.89523218   6.82858254
 C   10.42609568   1.95855748   7.04097603
 H   10.22193678   1.42759730   6.11412048
 H   11.49746506   2.14396308   7.07428504
 C   10.03824554   1.09080930   8.22620908
 H   10.22843427   1.62177965   9.16480467
 H   8.96871005   0.88799528   8.19435211
 N   10.69721165  -0.22773668   8.26355733
 H   10.32780203  -0.90993969   7.61578205
 N   12.73511330   0.66930257   8.96922506
 H   13.60879324   0.50722774   9.44416665
 H   12.24690805   1.51262148   9.22043397
 N   12.56768211  -1.59142145   8.35597761
 H   13.47741502  -1.75032823   8.76330511
 H   11.95234694  -2.39399683   8.36655374
 C   11.99834204  -0.37736086   8.55285010
 O   12.00221508   4.32403668   4.66675970
 H   2.00645211   7.90341482   0.97115396
