21
conf-367
 N  -5.83775597  -1.91921795  -4.63782444
 H  -6.46811714  -1.72864782  -5.40299136
 H  -5.33611810  -2.77821763  -4.82985171
 C  -4.87423617  -0.84413893  -4.50470783
 H  -4.63412109  -0.36592297  -5.47254405
 C  -3.56589300  -1.45312350  -3.97253947
 C  -5.43881647   0.25576476  -3.59426773
 H  -5.67957741  -0.20674279  -2.63617354
 H  -4.67457171   1.02046110  -3.41267534
 O  -3.38644432  -2.65906057  -3.95886109
 C  -6.66326389   0.90755048  -4.17815794
 C  -6.56532827   2.10237342  -4.89001361
 H  -5.60256588   2.58861403  -4.99852905
 C  -7.91480399   0.30975259  -4.04757163
 H  -7.99326081  -0.63112164  -3.51183849
 C  -7.69514867   2.68580044  -5.45975422
 H  -7.59665626   3.61567443  -6.00936223
 C  -9.04780207   0.88898982  -4.61113489
 H  -10.01051262   0.40347618  -4.49699919
 C  -8.94040835   2.08010376  -5.32277517
 H  -9.82088881   2.53268121  -5.76492079
 N  -2.63290655  -0.57265913  -3.56324417
 H  -2.76960824   0.42180736  -3.62133326
 C  -1.34349139  -0.98600875  -3.06437388
 H  -1.48096261  -1.81834377  -2.36900766
 C  -0.75348987   0.24398448  -2.36408248
 C  -0.43323385  -1.46918735  -4.18082591
 H  -0.93104385  -2.30480163  -4.67900158
 H   0.51255647  -1.82699710  -3.74975028
 O  -1.25695158   1.34686654  -2.45954102
 O  -0.23001915  -0.37241601  -5.06404192
 H   0.26941956  -0.68071755  -5.82392094
 N   0.37691071   0.02260930  -1.65955683
 H   0.78666727  -0.89295789  -1.57962129
 C   1.05075134   1.10401131  -0.98336816
 H   1.04046341   1.98693762  -1.62815357
 C   2.46951657   0.63898388  -0.69055388
 C   0.34186570   1.45182894   0.33400543
 H   0.26939945   0.55782787   0.96204364
 H  -0.64910303   1.83494490   0.10758082
 O   2.70849600  -0.52361784  -0.41440089
 O   1.09984953   2.47213761   1.07423671
 H   0.59921046   2.86468571   1.80999588
 N   3.42464029   1.60443337  -0.66326258
 H   3.11390398   2.55748936  -0.76146276
 C   4.60481750   1.38117810   0.16249891
 H   5.12733316   0.52029813  -0.25175560
 C   4.19076814   1.02975323   1.59000740
 C   5.52793965   2.59603110   0.11749424
 H   5.67431929   2.86885479  -0.92953736
 H   5.08683200   3.45202156   0.62929266
 O   3.13114747   1.44849462   2.09560346
 C   6.88890142   2.30359313   0.67891165
 O   7.41139063   1.21210842   0.66253736
 O   7.49269093   3.39497233   1.17828527
 N   5.02836420   0.25886781   2.28370249
 H   5.90871139  -0.04388265   1.87908509
 C   4.61451470  -0.31181226   3.55241322
 H   4.27465689   0.49134221   4.20855171
 C   5.81054741  -0.98059935   4.19027560
 C   3.44857460  -1.30868077   3.39671118
 H   2.55045202  -0.72480750   3.19132649
 H   3.29514765  -1.81164481   4.35450499
 O   6.83237023  -1.27708090   3.62689525
 C   3.65015837  -2.32919549   2.28484972
 H   4.51150192  -2.96590445   2.48946025
 H   3.84770833  -1.81762952   1.34303037
 C   2.41817783  -3.20753931   2.09597477
 H   2.25777755  -3.83583956   2.97341300
 H   1.53308482  -2.57549678   1.96939581
 N   2.49715008  -4.04605689   0.90249756
 H   2.43244272  -3.47838050   0.06929676
 N   3.86526052  -5.61912918   1.96599310
 H   4.49944771  -6.38338607   1.78896766
 H   3.07563966  -5.87105913   2.54016485
 N   4.23853822  -5.17805866  -0.26935992
 H   3.91977425  -4.59006199  -1.03492867
 C   3.55525103  -4.95393373   0.78979375
 O   5.58382679  -1.24652390   5.49051441
 H   6.37539329  -1.69467665   5.81593736
 H   1.97647914   2.04538776   1.46976426
 H   8.35954657   3.10591669   1.49569516
