21
conf-962
 N  -5.07527881  -2.66457503  -3.09823363
 H  -6.06823971  -2.63572319  -3.29067063
 H  -4.61308178  -3.00948344  -3.93052500
 C  -4.61405902  -1.31702643  -2.76199098
 H  -4.85215679  -0.58716401  -3.55240074
 C  -3.09177229  -1.36137556  -2.58009528
 C  -5.28035422  -0.86282262  -1.46919451
 H  -4.93831336  -1.55286058  -0.70092290
 H  -4.91180589   0.12972521  -1.20505247
 O  -2.53507766  -1.81393529  -1.55104256
 C  -6.78282492  -0.83743453  -1.56154974
 C  -7.44989933   0.30222321  -2.01310924
 H  -6.88031280   1.18913376  -2.26888263
 C  -7.53281434  -1.96298835  -1.23079121
 H  -7.01842395  -2.85997078  -0.89817204
 C  -8.83752461   0.31251265  -2.13197559
 H  -9.33687635   1.20853826  -2.48328885
 C  -8.91995413  -1.96008404  -1.35144427
 H  -9.48063710  -2.85143187  -1.09471622
 C  -9.57692754  -0.81969913  -1.80273766
 H  -10.65693493  -0.81400012  -1.89641957
 N  -2.38275934  -0.90958078  -3.63648716
 H  -2.84230850  -0.40958624  -4.38157352
 C  -0.93293814  -0.93101106  -3.60268682
 H  -0.62029153  -1.97706782  -3.58626373
 C  -0.44780901  -0.24859325  -2.33226567
 C  -0.32630557  -0.23479245  -4.80167598
 H  -0.58690955   0.83106693  -4.77259200
 H  -0.72958018  -0.67201426  -5.72124357
 O  -0.75201025   0.89421697  -2.03581138
 O   1.08002780  -0.43980182  -4.71050461
 H   1.52220782   0.18244556  -5.29279430
 N   0.28890214  -1.05873319  -1.53626115
 H   0.82992657  -1.79860606  -1.95110892
 C   0.62094316  -0.66607249  -0.18986252
 H  -0.05640100   0.15033904   0.06416084
 C   2.07169653  -0.16022634  -0.16592209
 C   0.43682497  -1.83921649   0.75354771
 H   0.80176248  -1.60260578   1.74560527
 H   0.96032723  -2.70772881   0.35583427
 O   3.01663599  -0.92482753  -0.46683182
 O  -0.97574404  -2.20822530   0.93646073
 H  -1.39004751  -1.52969514   1.51975977
 N   2.18496371   1.15173616   0.17374573
 H   1.46483129   1.54522728   0.78221011
 C   3.48705835   1.79326791   0.13006506
 H   4.03965669   1.27711349  -0.65289761
 C   4.19370833   1.58459055   1.49717053
 C   3.36272386   3.28668068  -0.14275172
 H   2.64194869   3.75411892   0.53267029
 H   4.33186360   3.76138181   0.02931824
 O   3.95327218   2.35574266   2.45785958
 C   2.93491737   3.58629994  -1.54710919
 O   2.02133005   4.30552498  -1.85737782
 O   3.71325960   2.95902008  -2.45456003
 N   5.01943386   0.49815826   1.53165009
 H   4.88494507  -0.15073619   0.76737609
 C   5.47568883  -0.09049537   2.77160766
 H   5.31454047   0.62679359   3.57658157
 C   6.97062305  -0.30345656   2.69825217
 C   4.78742858  -1.42640677   3.08349586
 H   5.10200548  -1.72684820   4.08706624
 H   5.16008687  -2.19290061   2.39828705
 O   7.74147580  -0.13175167   3.60489956
 C   3.26297077  -1.40405302   3.01708409
 H   2.89653156  -2.40436247   3.27170568
 H   2.95657904  -1.24420062   1.97350886
 C   2.62503614  -0.38932300   3.96644055
 H   2.94131751  -0.60827855   4.98604292
 H   2.96918101   0.60192201   3.73599833
 N   1.17753948  -0.38801040   3.92017572
 H   0.74484574  -1.27873134   4.09294005
 N  -0.91871988   0.08205732   3.08731578
 H  -1.48391562   0.87145045   2.80287846
 H  -1.29678654  -0.36022468   3.91132455
 N   0.70946224   1.66049903   2.74409878
 H   1.64667220   1.97311447   2.96761632
 C   0.40744983   0.52928227   3.25261441
 O   7.34422255  -0.75408509   1.47977174
 H   8.29898052  -0.88946089   1.51861350
 H  -1.46722244  -2.23799338   0.06708835
 H   3.39257816   3.22728473  -3.32566240
