21
conf-684
 N  -4.48664483  -1.70217116  -4.71421694
 H  -5.42991923  -1.55362133  -5.05677112
 H  -3.89650199  -1.81086721  -5.53038529
 C  -4.06817779  -0.54770819  -3.92075683
 H  -4.09393586   0.39731886  -4.49025214
 C  -2.62887796  -0.78568275  -3.47550959
 C  -5.00313164  -0.41891792  -2.72469228
 H  -6.02320089  -0.35598912  -3.11156992
 H  -4.92627380  -1.34690381  -2.15832635
 O  -2.31954862  -1.65126104  -2.65486661
 C  -4.69085599   0.77048475  -1.85341891
 C  -3.74045649   0.64975929  -0.84329553
 H  -3.29411200  -0.32768842  -0.68955224
 C  -5.29147670   2.01197321  -2.05982140
 H  -6.04432571   2.12388264  -2.83165847
 C  -3.37729178   1.74064851  -0.05824529
 H  -2.65580375   1.64620387   0.74005971
 C  -4.93685947   3.10962966  -1.27795360
 H  -5.41289561   4.06785341  -1.45353371
 C  -3.97719611   2.97547165  -0.27758637
 H  -3.69996003   3.82958136   0.33080314
 N  -1.70765064  -0.01240258  -4.09193081
 H  -2.00852847   0.73009269  -4.69861698
 C  -0.28379140  -0.27290244  -3.97597573
 H  -0.14471929  -1.35849548  -3.97753779
 C   0.26031557   0.29653999  -2.66026393
 C   0.46070990   0.33284594  -5.15697317
 H   0.25310895   1.40837102  -5.20922941
 H   0.11163598  -0.14032666  -6.07653030
 O   0.77542194   1.42088191  -2.59810338
 O   1.85504375   0.09423412  -5.05775406
 H   2.16559730   0.68817531  -4.36655521
 N   0.14906129  -0.50703539  -1.58055182
 H  -0.46594720  -1.31162450  -1.65066238
 C   0.47673002  -0.01084107  -0.25300781
 H   0.10115563   1.01570081  -0.18428312
 C   1.99622332   0.02039413  -0.04850992
 C  -0.14119395  -0.88646867   0.82232488
 H   0.09398537  -0.48450651   1.80918205
 H   0.26361303  -1.89119984   0.72857463
 O   2.60559693  -0.89330566   0.51014142
 O  -1.60244219  -0.98816666   0.67284576
 H  -2.02613962  -1.37375381   1.45653194
 N   2.62233905   1.13058118  -0.49354367
 H   2.10163209   1.74333809  -1.10607756
 C   4.07609442   1.21444350  -0.51002621
 H   4.47332182   0.21044978  -0.68760778
 C   4.63562070   1.71577926   0.82898114
 C   4.53600643   2.14502839  -1.63021638
 H   4.04271813   1.83608753  -2.55591979
 H   4.26170178   3.17935656  -1.41464800
 O   5.42972949   2.64352647   0.89238927
 C   6.01902831   2.04006412  -1.85597151
 O   6.68431632   1.05620677  -1.64658893
 O   6.52907741   3.18178018  -2.36390353
 N   4.19810390   1.06820895   1.93342541
 H   3.70845161   0.19101864   1.81354606
 C   4.75037705   1.41971860   3.22575462
 H   4.70575925   2.50718126   3.33246303
 C   6.21659795   1.04006389   3.33375306
 C   3.92475255   0.76218848   4.33714562
 H   4.05247578  -0.32130055   4.28888151
 H   2.87765237   0.97597996   4.11155871
 O   7.06175415   1.70692990   3.87775895
 C   4.27739780   1.27041747   5.72494543
 H   4.08150786   2.34329168   5.78393426
 H   5.34790665   1.13916288   5.91308576
 C   3.50469748   0.57064077   6.82740489
 H   3.65004475  -0.51553656   6.75812019
 H   3.89453710   0.88142051   7.80002377
 N   2.09039083   0.90650102   6.77830864
 H   1.71768156   0.90775490   5.84191881
 N  -0.11145317   0.59286207   7.39409766
 H  -0.71088083   0.30045520   8.15280001
 H  -0.27457793   1.54983187   7.12057204
 N   1.51562849  -0.48299096   8.65178668
 H   2.51773922  -0.63738605   8.68531647
 C   1.21824458   0.29299968   7.67859466
 O   6.47517111  -0.16621231   2.78922602
 H   7.41609904  -0.33086105   2.92025062
 H  -2.04052860  -0.12741018   0.44465637
 H   7.47603193   3.02946349  -2.47915102
