21
conf-950
 N  -5.21614460  -1.72983267  -3.73966071
 H  -5.01699141  -2.43647498  -4.43629353
 H  -4.87431437  -2.11538060  -2.86591084
 C  -4.46128448  -0.52031620  -4.02229801
 H  -4.50657898  -0.32560062  -5.10091023
 C  -2.98291435  -0.66545896  -3.62235783
 C  -5.08162168   0.67990187  -3.29163764
 H  -5.18467060   0.40161064  -2.24043890
 H  -4.39409664   1.53051772  -3.33289350
 O  -2.59594096  -1.56244155  -2.88087533
 C  -6.41799881   1.09872507  -3.85776720
 C  -6.50596709   2.17399016  -4.74004939
 H  -5.60966510   2.72460236  -5.00297580
 C  -7.58577599   0.41059476  -3.52708652
 H  -7.52095540  -0.43986331  -2.85781662
 C  -7.73084230   2.55329162  -5.28272213
 H  -7.77491849   3.39330101  -5.96786014
 C  -8.81451320   0.78814729  -4.06316043
 H  -9.70824117   0.23724272  -3.79084670
 C  -8.88973123   1.86135872  -4.94520036
 H  -9.84485528   2.15631290  -5.36569192
 N  -2.14713478   0.28468095  -4.11428002
 H  -2.48547819   0.88032221  -4.85164708
 C  -0.69632053   0.15859096  -3.98751398
 H  -0.42251501  -0.88047693  -4.18586747
 C  -0.26476842   0.53402544  -2.57283267
 C  -0.03127250   1.07300597  -4.99535096
 H   1.05716286   1.01573896  -4.88877965
 H  -0.33635420   2.10552281  -4.79490515
 O   0.09861713   1.67396171  -2.27420949
 O  -0.44367520   0.64764582  -6.29360945
 H  -0.08688369   1.26669361  -6.93505887
 N  -0.29509492  -0.46383262  -1.66279902
 H  -0.81540167  -1.30026708  -1.89959611
 C  -0.08194703  -0.16812653  -0.25906039
 H  -0.42062710   0.86241651  -0.09637630
 C   1.41160799  -0.22448977   0.08643672
 C  -0.84358065  -1.12045867   0.64893603
 H  -0.74410122  -0.78318755   1.67816035
 H  -0.44773835  -2.12953956   0.54868331
 O   1.85009770  -0.91511507   1.00064644
 O  -2.28859831  -1.17667279   0.29157695
 H  -2.86733812  -1.53357743   0.99397862
 N   2.22332072   0.52666252  -0.70322175
 H   1.79555156   1.27257108  -1.23729816
 C   3.61384630   0.68349150  -0.33024648
 H   3.96015672  -0.28432112   0.03425311
 C   3.74304240   1.71889037   0.79746567
 C   4.44886245   1.08730472  -1.54468415
 H   4.19751131   0.40763851  -2.36050773
 H   4.21298178   2.10215367  -1.86897002
 O   2.93837767   2.61572883   0.97054770
 C   5.92403100   0.95122050  -1.30206495
 O   6.41264342   0.15685415  -0.52916968
 O   6.66008269   1.78832089  -2.04764796
 N   4.82868261   1.53856887   1.59094447
 H   5.53985895   0.85911811   1.34381205
 C   4.99948676   2.32853477   2.77968368
 H   4.34533129   3.19878451   2.68684818
 C   6.42769358   2.81696458   2.87941744
 C   4.61257148   1.57364414   4.06221722
 H   4.72655071   2.27301850   4.89254812
 H   5.30793927   0.75244912   4.23793856
 O   7.34897944   2.42399267   2.21545165
 C   3.17657392   1.06844076   4.01163496
 H   3.05775755   0.35035126   3.20086706
 H   2.51730409   1.90825090   3.77853800
 C   2.70194866   0.41779101   5.30663796
 H   2.84043463   1.08947754   6.15741723
 H   1.62992963   0.22411190   5.22948823
 N   3.35051712  -0.84643436   5.60728753
 H   3.32906378  -1.51060590   4.85078386
 N   5.00543695  -2.25102120   6.36191785
 H   5.75721154  -2.34402563   7.03061945
 H   4.29550414  -2.95701599   6.48322035
 N   5.16508961  -0.01868996   6.96065861
 H   4.71518951   0.87857666   6.80129348
 C   4.51741519  -0.94573392   6.35746176
 O   6.55838949   3.75716114   3.83678463
 H   7.49152616   4.00591381   3.84027747
 H  -2.61296668  -0.28231164   0.05213109
 H   7.58487046   1.61960447  -1.81756670
