21
conf-885
 N  -6.91718789  -1.70448284   3.57452653
 H  -7.43122516  -0.89988606   3.22599686
 H  -6.97968037  -1.65457141   4.58597241
 C  -5.53160973  -1.63805082   3.14550801
 H  -4.98668090  -2.45867896   3.61883990
 C  -4.81559350  -0.30284605   3.49715495
 C  -5.47377107  -1.82540671   1.62759711
 H  -6.09008634  -2.68752469   1.37498387
 H  -5.92835973  -0.95039790   1.15275121
 O  -5.38929798   0.81030879   3.47814909
 C  -4.08008290  -2.07120231   1.08164734
 N  -3.89009451  -1.70717657  -0.20386539
 H  -2.96315113  -1.84552013  -0.57836688
 H  -4.66866782  -1.45307854  -0.77570508
 O  -3.19597939  -2.58441287   1.76114189
 N  -3.48286037  -0.46828868   3.76847028
 H  -3.07853038  -1.34049099   3.44492352
 C  -2.60951372   0.70143835   3.67437260
 H  -3.19990459   1.60204932   3.82249238
 C  -2.10464340   0.75463570   2.24499392
 C  -1.55323961   0.69658568   4.76169746
 H  -0.92792663  -0.18826122   4.62497917
 O  -1.08518053   0.14024129   1.89041133
 C  -2.27711489   0.59534133   6.11732024
 H  -1.54527737   0.76508088   6.91192819
 H  -2.64890663  -0.42453021   6.25059622
 C  -0.68001713   1.95233011   4.69524158
 H  -1.27640529   2.84578760   4.88722657
 H   0.11342157   1.90733498   5.44448057
 H  -0.22017748   2.06193510   3.71246610
 C  -3.44528657   1.56819919   6.27253099
 H  -3.82301174   1.55934302   7.29524418
 H  -3.14039252   2.59119020   6.03343473
 H  -4.27918828   1.32440913   5.61129522
 N  -2.89083839   1.44572389   1.39889967
 H  -3.81559514   1.69868074   1.72801438
 C  -2.60289991   1.58828827  -0.02260641
 H  -2.75846091   0.62186144  -0.51692984
 C  -1.14484038   1.95526931  -0.20963755
 C  -3.50835401   2.64493653  -0.62994377
 H  -3.32723513   2.73126503  -1.70310098
 H  -4.55677194   2.38372899  -0.47145908
 H  -3.30949620   3.61204312  -0.16689194
 O  -0.63488163   2.93181540   0.34238930
 N  -0.43906948   1.13596313  -1.01605724
 H  -0.79973503   0.21323329  -1.24478546
 C   0.98987654   1.31610157  -1.16355193
 H   1.17950906   2.38439610  -1.07139754
 C   1.40465834   0.83365983  -2.54366004
 C   1.77477419   0.58479912  -0.05460348
 H   1.51004711  -0.46980645  -0.11395816
 O   1.08510610  -0.27976245  -2.95473893
 C   3.27184371   0.78357336  -0.11254387
 H   3.68151918   0.32705226  -1.01787692
 H   3.74705476   0.31963451   0.75111034
 H   3.52440722   1.84835580  -0.11263817
 O   1.30139645   1.03731410   1.27307170
 H   1.03241574   1.99842006   1.18262387
 N   2.14296031   1.69713838  -3.29627340
 H   2.65820711   2.39451129  -2.77370241
 C   2.87689022   1.16724475  -4.44498162
 H   2.22287797   0.45441562  -4.94770197
 C   4.15475330   0.49276220  -3.96011946
 C   3.19832636   2.31780302  -5.39224575
 H   3.76342342   1.95129469  -6.25191839
 H   3.82477443   3.04430562  -4.85776713
 O   4.83078831   0.97935382  -3.06100044
 O   2.02135609   2.90797065  -5.90339327
 H   1.48107270   3.14384650  -5.14457252
 N   4.49419974  -0.66653608  -4.58280480
 H   4.04572650  -0.90637263  -5.45197487
 C   5.75714216  -1.29160700  -4.24445699
 H   6.04537992  -1.96787123  -5.05059442
 H   6.54287942  -0.54364024  -4.13262421
 C   5.72895286  -2.07568568  -2.93743340
 O   6.73855790  -2.25867391  -2.27461442
 N   4.52510816  -2.58631318  -2.56505897
 H   3.76106553  -2.54321351  -3.20769540
 C   4.50274313  -3.56726111  -1.49958295
 H   4.88797525  -3.09783214  -0.58735409
 C   5.42488409  -4.72587745  -1.85652873
 C   3.09317190  -4.10270648  -1.25672852
 H   2.73817317  -4.57757773  -2.17248747
 H   3.15029954  -4.88282379  -0.49549505
 O   5.66951024  -5.11029493  -2.97004252
 C   2.10647482  -3.03943084  -0.80614979
 H   2.50710560  -2.53179071   0.08095246
 H   2.00561216  -2.27377100  -1.57919302
 C   0.75013822  -3.64341869  -0.47329916
 H   0.86159182  -4.28766650   0.40516301
 H   0.42992185  -4.29186998  -1.29613240
 C  -0.34710814  -2.62379138  -0.19326352
 H  -1.19585272  -3.11450231   0.28367771
 H  -0.00058695  -1.86248649   0.51125510
 N  -0.85345742  -1.93790775  -1.38513538
 H  -1.26594804  -2.62469350  -2.00775353
 H  -0.07890835  -1.54777744  -1.90567275
 O   5.90092089  -5.33160797  -0.74273126
 H   6.44689020  -6.06093342  -1.05959522
 H   0.42698260   0.57055635   1.48361411
