21
conf-879
 N  -7.10766879  -2.18510398   5.41855258
 H  -7.90233121  -1.75267158   4.95552201
 H  -7.03736831  -1.70848774   6.31146662
 C  -5.91696179  -1.92489804   4.62807905
 H  -5.04100600  -2.19349882   5.22728468
 C  -5.79358162  -0.45358403   4.19413358
 C  -5.92395592  -2.84507439   3.40048294
 H  -6.08491739  -3.86287163   3.75561142
 H  -6.75512373  -2.59360750   2.73821364
 O  -6.75540843   0.30489534   4.20346488
 C  -4.59450485  -2.82469050   2.67428046
 N  -4.63686809  -2.90547719   1.32522767
 H  -3.77651402  -2.71600040   0.83862552
 H  -5.51179735  -2.87948785   0.83846103
 O  -3.53918974  -2.74782998   3.29509649
 N  -4.55540752  -0.06395122   3.79960678
 H  -3.78972349  -0.72735149   3.77368642
 C  -4.34620102   1.22401181   3.18881195
 H  -5.33536490   1.66126390   3.02360975
 C  -3.65753435   1.06067223   1.83558715
 C  -3.57204149   2.19856152   4.10536382
 H  -3.49154173   3.13799814   3.54170949
 O  -3.21335321   0.00032830   1.42263787
 C  -2.14961871   1.71400242   4.40787477
 H  -1.74432372   1.19455616   3.53155202
 H  -2.20237912   0.97819360   5.21336969
 C  -4.36323553   2.47630604   5.38176421
 H  -4.45483796   1.56913524   5.98160818
 H  -3.86381518   3.22716289   5.99541995
 H  -5.37150086   2.82962153   5.15121273
 C  -1.22643443   2.86480803   4.80245704
 H  -0.24735933   2.49560741   5.11615566
 H  -1.08079867   3.53990395   3.95579245
 H  -1.63920294   3.44750418   5.62735765
 N  -3.56350128   2.22002979   1.11583799
 H  -3.65747236   3.06673323   1.64773086
 C  -2.63336759   2.31640111   0.00786734
 H  -2.81178708   1.46813145  -0.64932933
 C  -1.17072724   2.20631695   0.52789404
 C  -2.83111381   3.64258285  -0.71571366
 H  -2.19393625   3.70869445  -1.59931542
 H  -3.87126690   3.76207320  -1.01790370
 H  -2.55360567   4.44783002  -0.02965998
 O  -0.78911109   2.59169991   1.65796230
 N  -0.30443793   1.66363880  -0.38184393
 H  -0.59454238   1.50415741  -1.33231269
 C   1.13849793   1.70168340  -0.19683599
 H   1.39125633   2.58371148   0.39681605
 C   1.71420035   1.80061624  -1.60314558
 C   1.64613568   0.45897415   0.57442368
 H   1.33866579  -0.43006299   0.02414584
 O   1.09245802   1.39690065  -2.56851247
 C   3.13402417   0.44470229   0.85012991
 H   3.70175722   0.31505332  -0.06357501
 H   3.37140550  -0.38390770   1.51801415
 H   3.44868818   1.37589116   1.33317184
 O   0.94733240   0.39128087   1.88816093
 H   0.98846300   1.29607994   2.28543501
 N   2.94984034   2.36880987  -1.71655661
 H   3.49512293   2.46913430  -0.87693766
 C   3.70591502   2.15035491  -2.93394225
 H   3.00783897   2.21328771  -3.76940626
 C   4.38340019   0.76624759  -2.91976310
 C   4.79274789   3.19483527  -3.08775519
 H   5.54362777   3.05554253  -2.29775105
 H   4.36246344   4.19785046  -3.02031198
 O   5.01953277   0.37630164  -1.94192978
 O   5.37799294   2.99315253  -4.36811601
 H   6.29561257   3.29070056  -4.33281312
 N   4.26859197   0.06518947  -4.07573738
 H   3.91739282   0.55100406  -4.88227243
 C   5.09704272  -1.09767892  -4.27158762
 H   5.18659375  -1.59810647  -3.30761071
 H   4.62214691  -1.78583375  -4.96902609
 C   6.51499868  -0.85166664  -4.78572320
 O   7.22164284  -1.79928869  -5.10402548
 N   6.92917217   0.43677675  -4.84895096
 H   6.27180028   1.18679384  -4.69078916
 C   8.23128488   0.76841451  -5.38599715
 H   8.81969191  -0.15113868  -5.41145955
 C   8.99985186   1.72958012  -4.50730078
 C   8.15155755   1.35389471  -6.80347760
 H   7.51102814   2.24072242  -6.77095647
 H   9.15236208   1.69218869  -7.08434144
 O   10.19777777   1.76134094  -4.40933718
 C   7.63264557   0.38216533  -7.85759445
 H   6.63857238   0.02336993  -7.57501650
 H   7.50654481   0.93441856  -8.79399710
 C   8.54769253  -0.81016355  -8.09030714
 H   8.71885674  -1.33798265  -7.14722737
 H   9.52332026  -0.46011330  -8.44092094
 C   7.97972648  -1.80498629  -9.08455819
 H   8.64153887  -2.67422541  -9.13471857
 H   7.00646558  -2.15765642  -8.70674101
 N   7.89192317  -1.23018908  -10.43198525
 H   7.10753347  -0.59145284  -10.48175000
 H   7.69059130  -1.96134097  -11.10220527
 O   8.19899363   2.63000969  -3.88150230
 H   8.79829424   3.20338764  -3.38333612
 H  -0.00805467   0.21567741   1.73920637
