21
conf-217
 N  -5.82748481  -2.70908829   5.85682089
 H  -6.68038909  -2.15773128   5.84842002
 H  -5.35132909  -2.43218753   6.70598960
 C  -5.01087224  -2.30992320   4.72436685
 H  -4.10782856  -2.93577996   4.71747994
 C  -4.54399304  -0.84832304   4.80869813
 C  -5.75082261  -2.59257180   3.41235519
 H  -5.05723722  -2.62123307   2.56686078
 H  -6.19843904  -3.58582770   3.49243241
 O  -4.75819457  -0.14665129   5.78487682
 C  -6.87733305  -1.60785237   3.14201082
 N  -7.21926309  -1.46966002   1.83555083
 H  -7.96055378  -0.83001817   1.60849103
 H  -6.75698517  -1.98261181   1.10858324
 O  -7.44751000  -1.01941827   4.04746020
 N  -3.88289717  -0.38912889   3.72290101
 H  -3.59396038  -1.01263238   2.98784071
 C  -3.28744602   0.93358391   3.70470159
 H  -4.02989434   1.63932791   4.07815553
 C  -2.98757925   1.23701485   2.24767388
 C  -2.02713384   1.06933178   4.59980378
 H  -2.40186829   0.99371708   5.62226578
 O  -2.37971136   0.42951842   1.53911799
 C  -1.36320345   2.44412990   4.45551716
 H  -1.08191616   2.62294089   3.41569063
 H  -0.42781844   2.40937352   5.02327967
 C  -1.00953816  -0.04812856   4.38888326
 H  -0.66174413  -0.06991082   3.35748436
 H  -0.14651838   0.10463247   5.03877726
 H  -1.43499016  -1.02482503   4.62429330
 C  -2.19997179   3.59903338   4.98265044
 H  -1.65962070   4.54223707   4.88755731
 H  -3.14389030   3.71072504   4.44098572
 H  -2.44197836   3.45414278   6.03861493
 N  -3.42388144   2.41535269   1.76720141
 H  -3.77051353   3.10472028   2.41529036
 C  -3.00270860   2.90006249   0.45710718
 H  -3.36412173   2.19163213  -0.29472419
 C  -1.47687364   2.93676016   0.40965758
 C  -3.56984335   4.28832373   0.21835918
 H  -3.24995169   4.66978718  -0.75413277
 H  -4.66075309   4.26901696   0.24804153
 H  -3.20354489   4.96975630   0.98703318
 O  -0.82336884   3.60623008   1.22229892
 N  -0.92585403   2.18311398  -0.56439877
 H  -1.52109807   1.69051863  -1.21191847
 C   0.47172542   1.82203391  -0.66098437
 H   1.06928422   2.71427813  -0.48722592
 C   0.62984550   1.25090221  -2.05879032
 C   0.89860130   0.69987770   0.33098265
 H   1.78633770   0.21739941  -0.06691233
 O  -0.21586897   0.47075059  -2.49648444
 C   1.17116558   1.16661600   1.74440667
 H   1.99795552   1.87688867   1.75293111
 H   1.43171782   0.32725777   2.39167244
 H   0.29815999   1.65748210   2.17290479
 O  -0.14700273  -0.34999731   0.34264717
 H  -0.97189282   0.02312241   0.78806384
 N   1.74604830   1.58575835  -2.74202422
 H   2.50550816   2.00755351  -2.22604586
 C   2.18474358   0.73464392  -3.83604898
 H   1.29599140   0.43009344  -4.38618828
 C   2.90303931  -0.51136162  -3.28168026
 C   3.09707419   1.53270713  -4.74192981
 H   2.54377733   2.39606840  -5.12353483
 H   3.41945527   0.91734288  -5.59157103
 O   3.24789148  -0.62366245  -2.11906216
 O   4.20376603   1.94779813  -3.94227158
 H   4.90937816   2.23845735  -4.52643605
 N   3.15620978  -1.47523964  -4.19129221
 H   2.83401823  -1.43657592  -5.14326714
 C   3.81128303  -2.68968544  -3.78977535
 H   4.78984894  -2.47529722  -3.35425936
 H   3.24182384  -3.21128964  -3.01527474
 C   3.95235825  -3.57053467  -5.02900219
 O   3.50461833  -3.23617923  -6.11327946
 N   4.61675617  -4.73174013  -4.82726242
 H   4.89790887  -4.99532861  -3.89664831
 C   4.74819494  -5.71149510  -5.88434022
 H   4.02721070  -5.45201359  -6.66313429
 C   4.41361894  -7.10605575  -5.39462482
 C   6.14629914  -5.73034361  -6.51752592
 H   6.89638981  -5.97037193  -5.76186931
 H   6.15490426  -6.54128040  -7.25047307
 O   3.96617553  -7.98310641  -6.08450361
 C   6.49753072  -4.41945178  -7.20483971
 H   5.70582952  -4.16591714  -7.91775887
 H   6.52478589  -3.61099372  -6.47619623
 C   7.83128839  -4.48499966  -7.92970694
 H   7.80845110  -5.28138848  -8.68131061
 H   8.62380762  -4.74312438  -7.22251244
 C   8.18940014  -3.18064653  -8.61085684
 H   7.38194686  -2.90283198  -9.30490630
 H   8.25159062  -2.39125292  -7.85506062
 N   9.49595194  -3.29430806  -9.25701256
 H   9.76786249  -2.40650433  -9.66022694
 H   9.44139282  -3.94834205  -10.02882321
 O   4.73067159  -7.28163590  -4.08912586
 H   4.50787465  -8.19470787  -3.86743781
 H  -0.39747699  -0.52878542  -0.60170981
