21
conf-883
 N  -8.41644068   6.19408986   3.33409661
 H  -8.00450427   6.83376382   2.66159404
 H  -8.14092925   6.55475976   4.24038373
 C  -7.81997080   4.88264753   3.13148570
 H  -8.06466061   4.24905829   3.98987047
 C  -6.29378456   4.95305664   2.97472092
 C  -8.41794672   4.20587889   1.89281388
 H  -8.36322987   4.88865562   1.04404168
 H  -7.84873799   3.30899957   1.63284426
 O  -5.71567830   5.98233195   2.66090435
 C  -9.85356502   3.74737111   2.12165070
 N  -10.65473016   3.79868378   1.02328521
 H  -11.60873722   3.49988165   1.12960847
 H  -10.33597731   4.15712699   0.14301546
 O  -10.24283318   3.31829146   3.19291121
 N  -5.64304821   3.77656566   3.20409711
 H  -6.17227862   2.91671808   3.19211195
 C  -4.27798790   3.58214603   2.76050311
 H  -4.02422946   4.39163728   2.06878260
 C  -4.26066274   2.24232081   2.01535787
 C  -3.25384407   3.63117583   3.91470734
 H  -2.27856434   3.44851337   3.45029755
 O  -5.21209283   1.47763771   2.04349050
 C  -3.49376559   2.54163721   4.96164029
 H  -3.71224546   1.59621182   4.45143999
 H  -4.39131005   2.80409014   5.52606182
 C  -3.24371426   5.02748506   4.53539160
 H  -4.19364319   5.22647724   5.03121691
 H  -2.45163137   5.12250453   5.27841218
 H  -3.09583361   5.79205065   3.76984182
 C  -2.32205241   2.34758279   5.91418198
 H  -2.53486999   1.55085400   6.62933258
 H  -1.41585609   2.07252925   5.36763661
 H  -2.10354520   3.25401020   6.48205148
 N  -3.11976865   1.95423195   1.35669695
 H  -2.33825874   2.58971271   1.31182899
 C  -2.97591711   0.72357840   0.60982796
 H  -3.32965905  -0.10237896   1.23136984
 C  -1.48661192   0.57681097   0.33225128
 C  -3.78957199   0.72972967  -0.68625072
 H  -3.63393840  -0.20008618  -1.23670332
 H  -4.84608567   0.83390653  -0.44758428
 H  -3.48833586   1.56802380  -1.31949406
 O  -0.73240265   1.54329729   0.33214668
 N  -1.06242509  -0.67932440   0.04673537
 H  -1.76038666  -1.36442047  -0.18921557
 C   0.30135567  -0.90975847  -0.42158293
 H   0.90038676  -0.15700897   0.09063043
 C   0.35943876  -0.65262410  -1.92470545
 C   0.87667100  -2.28816679  -0.06087800
 H   1.94112820  -2.24041269  -0.28131322
 O   0.49645549  -1.57819781  -2.75427234
 C   0.64642211  -2.70436385   1.37349722
 H   1.08311309  -1.97619427   2.05876112
 H   1.11397688  -3.67353383   1.55427097
 H  -0.41710837  -2.79305302   1.59389542
 O   0.36106107  -3.34911143  -0.96335857
 H  -0.56038971  -3.55445572  -0.69636521
 N   0.20513818   0.60883436  -2.31928991
 H   0.13370196   1.34577241  -1.62438421
 C   0.23465949   0.95363164  -3.73129010
 H  -0.23944770   0.13797383  -4.28290879
 C   1.69967894   1.10738732  -4.18559256
 C  -0.54768080   2.22492627  -3.97077399
 H  -0.00211846   3.08576359  -3.56736777
 H  -1.50661477   2.13159191  -3.44345005
 O   2.26685273   2.18729425  -4.23945268
 O  -0.75136619   2.33147307  -5.37484822
 H  -1.03522366   3.22570318  -5.57521612
 N   2.34071871  -0.04435930  -4.47756519
 H   1.91931054  -0.95410105  -4.35692133
 C   3.72188789   0.01328523  -4.86611179
 H   3.85479115   0.70250793  -5.70455674
 H   4.34513719   0.41040325  -4.05683489
 C   4.19361318  -1.38353720  -5.25087982
 O   3.46655184  -2.35875308  -5.17695080
 N   5.47104556  -1.44779423  -5.69216796
 H   6.05737041  -0.62916325  -5.66473522
 C   6.08490199  -2.71776373  -6.01335010
 H   5.46246953  -3.50179319  -5.57649929
 C   7.46766155  -2.83699204  -5.40478032
 C   6.18372512  -2.97453375  -7.52359764
 H   6.78666418  -2.19705279  -7.99585138
 H   6.71569636  -3.92068605  -7.65403174
 O   7.98432000  -3.87299493  -5.08065156
 C   4.82133361  -3.06344485  -8.19494831
 H   4.20785460  -3.79718724  -7.66140327
 H   4.30052338  -2.11098444  -8.11375756
 C   4.92309131  -3.44967325  -9.66104442
 H   5.43501700  -4.41044264  -9.76228754
 H   5.53181469  -2.71101835  -10.19308724
 C   3.57039574  -3.54203918  -10.33568971
 H   2.97576130  -4.31431180  -9.83759879
 H   3.03809509  -2.58779050  -10.20568010
 N   3.73430192  -3.92798625  -11.73618247
 H   4.19560599  -3.18323359  -12.24506642
 H   2.83069383  -4.05060843  -12.17570104
 O   8.09412357  -1.63897253  -5.31552140
 H   8.96831729  -1.80755845  -4.94164363
 H   0.36592829  -2.84394797  -1.85495893
