21
conf-123
 N  -5.64744231  -3.08249291   5.76772851
 H  -4.68059293  -3.24788494   6.05448830
 H  -6.02854992  -2.31609115   6.32798912
 H  -6.19143138  -3.92443361   5.96072782
 C  -5.72985382  -2.68928401   4.34176493
 H  -5.14141867  -3.39246995   3.74136478
 C  -5.13179544  -1.29298923   4.21774124
 C  -7.17626890  -2.70193570   3.82331918
 H  -7.75266027  -2.09297647   4.52561798
 O  -5.49121491  -0.38005449   4.95743383
 C  -7.30484981  -2.08085699   2.43294241
 H  -6.68134673  -2.61968170   1.71139883
 H  -7.00962636  -1.02913204   2.42429514
 H  -8.34174309  -2.13810611   2.09412439
 C  -7.74982150  -4.11686699   3.79759506
 H  -7.18158243  -4.73361787   3.09677810
 H  -7.73129392  -4.60965515   4.77026781
 H  -8.78901748  -4.09245760   3.46303997
 N  -4.22138705  -1.11529826   3.23779372
 H  -3.93326152  -1.85331494   2.61044027
 C  -3.61720126   0.17356587   2.98476427
 H  -4.40103972   0.93641643   2.99074411
 C  -2.99782920   0.07345704   1.59652899
 C  -2.58206390   0.54065569   4.04759048
 H  -2.11664224   1.49864387   3.81201430
 H  -3.07406940   0.60733169   5.01673407
 H  -1.80372232  -0.22415237   4.10101880
 O  -2.73657569  -1.00907552   1.08358817
 N  -2.73997101   1.25322968   0.97718585
 H  -2.71260356   2.09118139   1.53611303
 C  -2.05805833   1.27578055  -0.31156195
 H  -2.40035038   0.37964810  -0.83648201
 C  -0.55149669   1.20982866  -0.10046001
 C  -2.45128836   2.50963497  -1.10011911
 H  -2.20701526   3.40399637  -0.51460444
 H  -1.87061208   2.54747010  -2.02484221
 O   0.18536647   2.18511667  -0.25804314
 O  -3.81164724   2.47538415  -1.48530783
 H  -4.32783641   2.35302854  -0.68521165
 N  -0.08029766   0.01538984   0.31891852
 H  -0.72131212  -0.76417561   0.40309126
 C   1.34783152  -0.23346520   0.35154802
 H   1.81206824   0.71015364   0.65718468
 C   1.82077996  -0.57719144  -1.05762290
 C   1.69637845  -1.30993866   1.36200651
 H   1.16862363  -2.23099006   1.10555877
 H   1.31098115  -0.96870879   2.32728478
 O   2.06606496  -1.71817906  -1.42067319
 C   3.19713574  -1.61268601   1.49881090
 H   3.49292433  -2.22577132   0.64460205
 C   4.04680047  -0.34339934   1.48753088
 H   3.66102259   0.37686356   2.21579297
 H   4.06077210   0.13304779   0.50723063
 H   5.07997323  -0.57661559   1.75604182
 C   3.42301933  -2.41484143   2.77696476
 H   3.17926270  -1.80789414   3.65224555
 H   2.79532290  -3.30883944   2.79614902
 H   4.46407117  -2.73383543   2.86401924
 N   1.89067457   0.49397901  -1.90098260
 H   1.83513335   1.41195651  -1.48043194
 C   2.75928591   0.42019790  -3.04129515
 H   2.78413081  -0.61362047  -3.39530157
 C   4.24703875   0.83488263  -2.62402183
 C   2.33979898   1.35589623  -4.16989542
 H   3.09218939   1.26167301  -4.95824021
 H   2.36820303   2.38875001  -3.81384875
 O   5.10088707   0.45371768  -3.42910946
 C   0.95426484   1.02291925  -4.70997100
 H   0.88686131  -0.04689018  -4.92786346
 H   0.20658594   1.24642565  -3.94746937
 C   0.59946315   1.78764112  -5.97465612
 H  -0.39746955   1.50897212  -6.33174496
 H   1.29518524   1.53072410  -6.77618740
 N   0.67512287   3.25445576  -5.83208801
 H   1.58736400   3.66179240  -5.97628234
 N  -1.29987722   3.41471386  -4.58175038
 H  -2.10566167   4.02232080  -4.51951448
 H  -1.51662480   2.49218032  -4.93605673
 N  -0.00479073   5.31566530  -4.96420040
 H   0.92251476   5.67407326  -5.16087781
 H  -0.43029512   5.72095742  -4.14222988
 C  -0.19034815   3.98154543  -5.12941635
 O   4.34409226   1.49233205  -1.56617174
