21
conf-883
 N  -7.03952264  -1.04995057   5.00244518
 H  -6.87832411  -1.61038956   5.83888964
 H  -6.51900024  -0.17620919   5.10115770
 H  -8.03004983  -0.83594447   4.91962994
 C  -6.52098767  -1.72357341   3.79971980
 H  -6.68922416  -2.80267720   3.88514398
 C  -5.01699835  -1.47503706   3.74672620
 C  -7.20522537  -1.24296792   2.50154432
 H  -6.63937055  -1.70090994   1.68071213
 O  -4.50579875  -0.51646517   4.32103412
 C  -8.64301945  -1.74873502   2.40850154
 H  -9.27021329  -1.31539600   3.18993820
 H  -8.69402185  -2.83628571   2.50074241
 H  -9.07747304  -1.47182142   1.44557944
 C  -7.15182512   0.27311031   2.33113523
 H  -7.77338949   0.76337355   3.08431948
 H  -6.13991764   0.66853918   2.42201134
 H  -7.54317190   0.54734768   1.34966768
 N  -4.29869995  -2.34289783   2.99551572
 H  -4.78455376  -3.00176930   2.41391510
 C  -2.89982455  -2.08638132   2.68392772
 H  -2.49850271  -1.56679195   3.55863278
 C  -2.83062678  -1.14428729   1.48100784
 C  -2.15317144  -3.37968627   2.44376041
 H  -1.09775929  -3.17346900   2.23788289
 H  -2.22489879  -4.01388080   3.32887363
 H  -2.56693175  -3.90968052   1.58507198
 O  -2.47721606  -1.51401231   0.35901677
 N  -3.21578424   0.12662063   1.72328052
 H  -3.45323211   0.41249774   2.66608003
 C  -3.00981739   1.16728579   0.73301054
 H  -3.22933973   0.72867304  -0.24126436
 C  -1.54479186   1.61113413   0.78185254
 C  -3.95077108   2.31808496   1.01660905
 H  -3.76771278   3.13075431   0.30599103
 H  -4.97879230   1.96554149   0.90173428
 O  -1.18698151   2.65247701   1.33412078
 O  -3.82692781   2.76974934   2.34980812
 H  -2.92883688   3.12289394   2.41086622
 N  -0.68255441   0.73630156   0.22967407
 H  -1.02440468  -0.11409202  -0.20148535
 C   0.74908809   0.90616587   0.31197751
 H   0.93012354   1.78538344   0.92995228
 C   1.29146453   1.15224744  -1.09644508
 C   1.42497030  -0.33472173   0.90307676
 H   2.47518030  -0.09358957   1.09150118
 H   1.41376780  -1.12501472   0.14958808
 O   0.96557407   0.44286959  -2.03902645
 C   0.79796725  -0.85259366   2.19884919
 H  -0.23277221  -1.15866789   1.97510688
 C   1.55351487  -2.08143032   2.68599002
 H   2.60223037  -1.83717434   2.86695519
 H   1.51366727  -2.88321413   1.94442705
 H   1.13162622  -2.46057989   3.62040995
 C   0.77077078   0.22980742   3.26943259
 H   1.79320458   0.50639677   3.54351962
 H   0.26031025   1.13269079   2.93301874
 H   0.26677714  -0.12846362   4.16946935
 N   2.16937904   2.18485971  -1.20753533
 H   2.67139347   2.54565473  -0.40025513
 C   2.95935249   2.37264749  -2.39189394
 H   3.06902529   1.42280225  -2.93466765
 C   4.35310318   2.86931231  -1.89596687
 C   2.42621016   3.44134705  -3.35004453
 H   3.24101889   3.66987646  -4.04098048
 H   2.21351152   4.35261381  -2.77984622
 O   5.24107372   2.97623375  -2.74471229
 C   1.19102099   2.98600946  -4.10891416
 H   1.45274804   2.12072682  -4.71854625
 H   0.41789503   2.65687168  -3.41619021
 C   0.61736246   4.06800957  -5.01400424
 H   0.28361367   4.91628850  -4.41218282
 H  -0.26847900   3.70071488  -5.54025051
 N   1.57121823   4.62271112  -5.99457929
 H   2.21157211   5.30337838  -5.60991537
 N   1.57221972   2.67746780  -7.28463916
 H   1.76956969   2.25956201  -8.17965883
 H   0.68107310   2.43931234  -6.88158194
 N   3.15245936   4.36713531  -7.67691725
 H   3.31346641   5.36499620  -7.64362703
 H   3.37232167   3.93375265  -8.56146688
 C   2.08132480   3.89048754  -6.99557918
 O   4.41796357   3.10289784  -0.66693276
