21
conf-771
 N  -6.97192564   1.48878477   4.61420784
 H  -6.70797909   0.87695206   5.38923683
 H  -6.42128562   2.34900191   4.67175803
 H  -7.95880812   1.72960805   4.71455677
 C  -6.69186840   0.85602903   3.30246723
 H  -7.10061717  -0.16095955   3.29510010
 C  -5.18210292   0.79680712   3.15254816
 C  -7.31371835   1.64067694   2.13891665
 H  -6.95987818   2.66920916   2.24775755
 O  -4.50134136   1.81277076   3.31628279
 C  -6.87013403   1.11844216   0.77169608
 H  -7.14942591   0.06641763   0.65273301
 H  -5.79058407   1.20891371   0.62580853
 H  -7.36306741   1.68785856  -0.01940315
 C  -8.83964236   1.62964746   2.20607826
 H  -9.20926323   0.60619969   2.10229271
 H  -9.23615688   2.03789634   3.13621599
 H  -9.25218539   2.22334102   1.38754045
 N  -4.64474743  -0.39400318   2.82979034
 H  -5.23866554  -1.19877314   2.72572043
 C  -3.20410257  -0.60086993   2.78502188
 H  -2.78302453   0.10524632   3.51334160
 C  -2.67913826  -0.21448633   1.39730838
 C  -2.85550605  -2.02581761   3.16152082
 H  -1.77609632  -2.17819317   3.11476634
 H  -3.19427899  -2.23345635   4.17845382
 H  -3.32689435  -2.72606151   2.47197523
 O  -2.19365251  -1.03360047   0.60865170
 N  -2.78672788   1.09103590   1.07660191
 H  -3.12878478   1.75465605   1.76426600
 C  -2.16112054   1.61156587  -0.12823955
 H  -2.30458673   0.86061112  -0.90799335
 C  -0.66370993   1.81649361   0.10787917
 C  -2.82899035   2.91545420  -0.51624750
 H  -2.36556710   3.30290552  -1.43007019
 H  -3.88807543   2.72359623  -0.70664894
 O  -0.17769505   2.94002850   0.27363290
 O  -2.76308774   3.86180525   0.53105500
 H  -1.81927708   4.03865241   0.64326504
 N   0.08275438   0.70388468   0.15819281
 H  -0.37538604  -0.19626743   0.08547006
 C   1.46518529   0.75817143   0.59846242
 H   1.54036395   1.59994887   1.29638318
 C   2.36660028   1.05690766  -0.60701723
 C   1.89608904  -0.53644154   1.27526186
 H   2.92225082  -0.40430884   1.62516863
 H   1.92794868  -1.33254516   0.52917354
 O   3.10781233   0.22505918  -1.11193708
 C   1.02205697  -0.98169182   2.44633465
 H   0.04589462  -1.26601941   2.04105772
 C   1.64245829  -2.21696630   3.09458471
 H   2.60058924  -1.96273548   3.55249560
 H   1.81493278  -3.01000417   2.36348990
 H   0.98782327  -2.61450440   3.87428010
 C   0.82499872   0.11712358   3.48212923
 H   1.78820564   0.40731401   3.91221555
 H   0.35413121   1.01149268   3.06399305
 H   0.18963784  -0.24946615   4.29479591
 N   2.27979520   2.31776711  -1.09933797
 H   1.63745995   3.00263478  -0.72063945
 C   3.08957913   2.70097696  -2.22090515
 H   4.07062214   2.22907763  -2.14360050
 C   3.26321152   4.24886879  -2.22353435
 C   2.46088106   2.30099163  -3.56276007
 H   1.41332870   2.61674014  -3.58154059
 H   2.47567552   1.21145956  -3.61499199
 O   4.35079049   4.63922186  -2.66611143
 C   3.21049593   2.91298608  -4.75623937
 H   4.27080472   3.01241243  -4.51095865
 H   3.15205639   2.22429395  -5.60412313
 C   2.62832753   4.25333611  -5.20636692
 H   2.39152739   4.91525164  -4.37183216
 H   1.67677589   4.06066356  -5.70918058
 N   3.49631562   4.94838559  -6.17131088
 H   3.74474086   4.41046588  -6.98744861
 N   4.45949639   6.48265666  -4.67398349
 H   5.14345293   7.21449379  -4.54274709
 H   4.33632835   5.86897465  -3.86063685
 N   5.06842888   6.40237506  -6.96096637
 H   4.57665380   6.34615119  -7.84573142
 H   5.54207209   7.28611762  -6.82617310
 C   4.34733249   5.94947794  -5.88927051
 O   2.30612561   4.93054585  -1.83476241
