21
conf-586
 N  -4.64695767  -0.30861725   3.26916608
 H  -5.12571276  -0.15449361   2.37877406
 H  -4.34943018  -1.28623337   3.29983174
 H  -5.31662303  -0.15125675   4.02256869
 C  -3.45639614   0.59053295   3.41810877
 H  -3.81574173   1.61812861   3.36887458
 C  -2.50556925   0.38484042   2.29799926
 C  -2.75717420   0.37132699   4.76236784
 H  -3.45646081   0.68017008   5.54667301
 H  -2.54675230  -0.69200495   4.88575108
 O  -1.65938466  -0.62981280   2.37745690
 C  -1.47811615   1.20118732   4.86221541
 H  -0.67820818   0.75018269   4.26887604
 H  -1.15405008   1.32316523   5.89756701
 C  -1.87861713   2.55639246   4.27858338
 O  -2.60062480   3.26888879   4.98586237
 O  -1.46751865   2.77368586   3.11768569
 N  -2.62108928   1.07280634   1.18667504
 H  -3.05532862   1.99073068   1.22462057
 C  -2.04858097   0.73459371  -0.13177665
 H  -2.18235758  -0.33360282  -0.31095213
 C  -0.56474543   1.07662793  -0.13524554
 C  -2.77140761   1.54657657  -1.18416052
 H  -2.23474162   1.48586367  -2.13539956
 H  -2.71682287   2.59559807  -0.89097909
 O  -0.15504260   2.20389402  -0.39857174
 C  -4.20284306   1.16388307  -1.37061951
 C  -4.91123183   0.10529108  -0.86532217
 H  -4.60787456  -0.70080868  -0.21905065
 C  -5.12066757   1.91752524  -2.18378176
 C  -6.36588338   1.27718487  -2.11754936
 C  -4.97550250   3.08015718  -2.95442342
 H  -4.01743038   3.58992860  -3.02877345
 N  -6.21876871   0.17943636  -1.30603517
 H  -6.93417879  -0.49912310  -1.12169758
 C  -7.32635377   2.91100501  -3.54827913
 H  -8.17364455   3.31657930  -4.08800255
 C  -7.48995434   1.75864678  -2.79427503
 H  -8.44547969   1.25031981  -2.72906070
 C  -6.08257035   3.56441375  -3.62896199
 H  -5.99578910   4.46194286  -4.22973288
 N   0.26991701   0.04371536   0.26867428
 H   0.03915468  -0.85770388  -0.14330216
 C   1.70834729   0.29019269   0.14437180
 H   1.87098637   1.33284829   0.41144997
 C   2.13440205   0.03962612  -1.30373268
 C   2.54625014  -0.55965069   1.10643533
 H   3.59122790  -0.26237680   0.96560464
 O   1.50087776  -0.66299633  -2.07387417
 C   2.15327227  -0.36836775   2.55658587
 H   2.23870322   0.67750871   2.85854668
 H   2.80014926  -0.97376663   3.19274272
 H   1.12181824  -0.68900576   2.72067960
 O   2.51967379  -1.93488548   0.75509779
 H   1.65098697  -2.28638084   0.96074836
 N   3.30189507   0.63397461  -1.65941442
 H   3.86316559   1.12947557  -0.98572691
 C   3.76190294   0.61564450  -3.03761864
 H   3.68197737  -0.40313932  -3.42258187
 C   5.21307062   1.03321943  -3.04280378
 C   2.92343107   1.52997576  -3.95122679
 H   1.88600464   1.22345173  -3.83270858
 H   3.20130498   1.32965786  -4.98713165
 O   5.79786008   1.51360540  -2.10403521
 C   3.07549773   3.01573433  -3.64403457
 H   3.18526829   3.17729591  -2.57072231
 H   3.98952196   3.39624045  -4.10761901
 C   1.88102403   3.82660902  -4.12410853
 H   2.10735530   4.89616750  -4.04901649
 H   1.67357794   3.60359582  -5.17235168
 N   0.70844541   3.49816084  -3.32904494
 H   0.88166033   3.25559803  -2.36702070
 N  -0.79179333   4.51862633  -4.81815804
 H  -1.64792000   5.05120117  -4.83030262
 H  -0.02899651   4.99037078  -5.27471398
 N  -1.47369165   4.06506637  -2.65861993
 H  -1.12208691   3.62031285  -1.81057195
 C  -0.53261667   4.04978693  -3.53824717
 O   5.78381188   0.83061810  -4.24487261
 H   6.69983725   1.12620406  -4.16404409
 H  -0.93337338  -0.48980854   1.71350894
