21
conf-95
 N  -4.81231708   2.33341318   3.73982698
 H  -5.54650427   1.77220741   3.30198037
 H  -4.32045183   1.75205810   4.42285631
 H  -5.24421562   3.11022867   4.23676694
 C  -3.83524610   2.85151211   2.73913538
 H  -4.36806642   3.37518765   1.94072949
 C  -3.06565551   1.74538511   2.13929322
 C  -2.84321704   3.80193388   3.42455009
 H  -3.40420907   4.62088295   3.88339625
 H  -2.35101771   3.24264943   4.22646950
 O  -2.44653427   0.91532623   2.96866762
 C  -1.75996167   4.34420238   2.50294527
 H  -2.14618993   5.07072084   1.78677228
 H  -1.26665007   3.52459341   1.98136111
 C  -0.69549356   5.02154963   3.41203255
 O  -0.07502584   4.22343572   4.13092062
 O  -0.58763521   6.25391017   3.31442071
 N  -2.93950970   1.61046635   0.84525855
 H  -3.26004442   2.37118453   0.24120473
 C  -2.14883922   0.56772152   0.16483993
 H  -2.47628419  -0.40798653   0.53590640
 C  -0.65083277   0.70629023   0.46874265
 C  -2.44898860   0.61018839  -1.34097103
 H  -3.48061525   0.28358145  -1.48769239
 H  -1.80141013  -0.11898859  -1.83941440
 O  -0.17132386   1.69343470   1.00315669
 C  -2.24929831   1.96504851  -1.96268520
 C  -1.09125209   2.48648418  -2.46570108
 H  -0.10167341   2.07423902  -2.49588995
 C  -3.25993361   2.97314945  -2.16561877
 C  -2.64256980   4.07273603  -2.78152688
 C  -4.62287800   3.02814926  -1.86327513
 H  -5.12351658   2.19115136  -1.38697364
 N  -1.32095642   3.74808533  -2.96034322
 H  -0.59920677   4.36885150  -3.30821703
 C  -4.69306294   5.27240526  -2.79048779
 H  -5.27165455   6.15821050  -3.02291566
 C  -3.34079089   5.23747694  -3.10239787
 H  -2.85217988   6.08148144  -3.58070765
 C  -5.32895121   4.17735741  -2.17875120
 H  -6.38407212   4.23873569  -1.94406830
 N   0.10381456  -0.36645240   0.10769732
 H  -0.29215856  -1.08932456  -0.47068303
 C   1.55091896  -0.30517117   0.11428909
 H   1.83934010   0.60829472   0.62706147
 C   1.99029711  -0.29845998  -1.33924410
 C   2.15291692  -1.49969334   0.85726455
 H   1.80857617  -2.41402581   0.35814316
 O   1.68493096  -1.20593207  -2.09884759
 C   3.67247385  -1.45982737   0.89848227
 H   4.09699022  -1.46772310  -0.10522915
 H   4.05219471  -2.32368173   1.44676903
 H   3.99161958  -0.55081647   1.41400640
 O   1.63721458  -1.43592815   2.18849770
 H   1.92501218  -2.22948721   2.64609986
 N   2.68192647   0.79414538  -1.73917902
 H   3.04215159   1.43356408  -1.05484146
 C   3.17112243   0.89418081  -3.10018474
 H   2.38478125   0.50754598  -3.75811477
 C   4.38280490  -0.00112329  -3.29306399
 C   3.48960520   2.34472194  -3.46749472
 H   3.81226026   2.36732957  -4.50744969
 H   4.32945918   2.69692944  -2.86635684
 O   4.97719511  -0.58300889  -2.42518593
 C   2.29040559   3.25379995  -3.27297862
 H   1.41683931   2.81649077  -3.76097542
 H   2.05766185   3.32663750  -2.20808445
 C   2.48685210   4.65754048  -3.81364723
 H   3.46427863   5.05604321  -3.51705211
 H   2.46289475   4.63473012  -4.90679842
 N   1.40704935   5.52268444  -3.33448781
 H   1.36650723   5.53926139  -2.32458411
 N   0.46835855   7.61371601  -3.04918408
 H   0.26771260   8.48486953  -3.52003193
 H  -0.36744305   7.14724659  -2.72679345
 N   1.89864483   7.33123548  -4.85133611
 H   2.52970584   6.66124609  -5.27458704
 C   1.30725825   6.82766309  -3.83742517
 O   4.72591117  -0.05860952  -4.59739997
 H   5.49458631  -0.63876241  -4.65049275
 H  -1.77427045   0.40901226   2.47092109
