21
conf-102
 N  -3.93731126   0.09359426   4.21512478
 H  -4.83039813  -0.01276779   3.72806248
 H  -3.51991249  -0.83415422   4.32071083
 H  -4.11297971   0.47483295   5.14360756
 C  -3.00333297   0.97257254   3.45619734
 H  -3.50282667   1.90924103   3.19654055
 C  -2.56405039   0.32277823   2.20352125
 C  -1.73416829   1.26373996   4.26354658
 H  -1.97375534   1.91818352   5.10443690
 H  -1.37757272   0.31375709   4.67108461
 O  -1.94664104  -0.84352413   2.32317822
 C  -0.63507971   1.88194632   3.41232702
 H  -1.01809496   2.75371273   2.87828662
 H  -0.25951611   1.17994450   2.68116296
 C   0.54355876   2.36669935   4.28620833
 O   1.66602561   2.26325599   3.74972854
 O   0.26226985   2.86851661   5.38037751
 N  -2.78761302   0.85022080   1.01965435
 H  -3.17288567   1.78545109   0.96220626
 C  -2.29933223   0.30957416  -0.27023566
 H  -2.49074380  -0.76202964  -0.29569686
 C  -0.80448726   0.57331884  -0.33128920
 C  -3.03635029   1.01309708  -1.39923703
 H  -2.60986617   0.69478693  -2.35619811
 H  -2.84156176   2.08238192  -1.33327004
 O  -0.35462547   1.69624251  -0.55492232
 C  -4.51397144   0.75031216  -1.36643264
 C  -5.19791065  -0.26997049  -0.75524863
 H  -4.85079488  -1.09567123  -0.15786186
 C  -5.50630759   1.56075547  -2.02886907
 C  -6.76110860   0.98218559  -1.77876787
 C  -5.42378725   2.72544304  -2.80290501
 H  -4.46854585   3.19223224  -3.01667295
 N  -6.54863445  -0.13093686  -1.00381422
 H  -7.26433460  -0.75474914  -0.68056557
 C  -7.84442094   2.67540668  -3.04041646
 H  -8.74142361   3.12805782  -3.44538680
 C  -7.94905368   1.52319722  -2.27703777
 H  -8.90722794   1.05860011  -2.07200674
 C  -6.59518569   3.26977282  -3.30088122
 H  -6.55399027   4.17071370  -3.90156774
 N  -0.00338487  -0.46227934   0.02671248
 H  -0.27212886  -1.42060135  -0.13973246
 C   1.39588481  -0.20366774   0.32522350
 H   1.44038613   0.84885965   0.61422721
 C   2.20864006  -0.43152127  -0.94282748
 C   1.85363454  -1.04582640   1.50037598
 H   1.82403134  -2.10415488   1.21260627
 O   2.91178790  -1.41905485  -1.12505188
 C   3.22437360  -0.64203208   2.00741355
 H   3.98007354  -0.77913545   1.23560500
 H   3.49638436  -1.23394960   2.88276815
 H   3.19406272   0.41066749   2.29913465
 O   0.89458084  -0.79173296   2.53867170
 H   1.08067719  -1.37219691   3.28131798
 N   2.02780207   0.52376556  -1.88871206
 H   1.43335282   1.31834274  -1.69450248
 C   2.80021961   0.50578467  -3.10159482
 H   3.54216704  -0.29360146  -2.98918992
 C   3.59739191   1.78005029  -3.29724755
 C   1.96267323   0.19862962  -4.34404674
 H   2.59838193   0.31435473  -5.21891751
 H   1.15866429   0.93058459  -4.43401683
 O   4.20086646   2.04736800  -4.30437485
 C   1.38166905  -1.20518190  -4.29144808
 H   2.19885842  -1.93074022  -4.21878239
 H   0.78516615  -1.32483429  -3.38378195
 C   0.48561748  -1.54096033  -5.47847507
 H   0.04684709  -2.53032514  -5.33406103
 H  -0.33731348  -0.82764686  -5.52399168
 N   1.16071239  -1.55898208  -6.77616810
 H   1.90576545  -2.23990252  -6.80308338
 N   0.66033646   0.67556251  -7.29067216
 H   0.91809591   1.42358772  -7.91528486
 H  -0.31477432   0.42927063  -7.33790316
 N   2.63682510  -0.21016503  -8.06675959
 H   3.19701158  -1.05948377  -8.05845580
 C   1.54758803  -0.38655248  -7.41784804
 O   3.60808468   2.57467604  -2.20822864
 H   4.16990863   3.32933180  -2.43079281
 H  -1.23110566  -0.93987368   1.64703892
