21
conf-472
 N  -3.65822596  -0.93551697   4.17841198
 H  -4.39193493  -1.35144687   3.60182969
 H  -2.90889835  -1.62063805   4.28532442
 H  -4.04972972  -0.74901218   5.10064495
 C  -3.13968565   0.31891540   3.57632734
 H  -3.98127884   0.99389500   3.41004728
 C  -2.48510975   0.03661000   2.27394946
 C  -2.13389620   0.99264203   4.53029806
 H  -2.64770008   1.17978726   5.47850271
 H  -1.32435217   0.28137844   4.70953642
 O  -1.80803177  -1.08878707   2.15936068
 C  -1.55995879   2.29951044   3.99250457
 H  -1.02730537   2.11752769   3.05872885
 H  -0.87983464   2.74639278   4.71739200
 C  -2.74781805   3.26308762   3.80082193
 O  -3.29512429   3.26245774   2.67512954
 O  -3.06261830   3.92498377   4.79973332
 N  -2.53186371   0.92530111   1.31522979
 H  -2.89692913   1.85881851   1.57813746
 C  -2.01470076   0.77615028  -0.06683359
 H  -2.43953609  -0.13892359  -0.48890763
 C  -0.50809995   0.66629751  -0.03259777
 C  -2.44860873   1.99317625  -0.88035693
 H  -1.92473428   1.98510687  -1.83952242
 H  -2.12174587   2.88298097  -0.34475331
 O   0.22027416   1.64232137   0.10254526
 C  -3.92603393   2.02292419  -1.09478482
 C  -4.84290895   2.70390595  -0.35175218
 H  -4.68669458   3.33907639   0.50108418
 C  -4.66974386   1.29644737  -2.09468527
 C  -6.02999119   1.57946075  -1.88964876
 C  -4.29519410   0.43333079  -3.13270452
 H  -3.25236195   0.19848170  -3.32169291
 N  -6.11029221   2.44699510  -0.82138084
 H  -6.95474541   2.82426905  -0.43925038
 C  -6.64487396   0.17307400  -3.69974561
 H  -7.39683201  -0.27700276  -4.33678232
 C  -7.03995109   1.02699871  -2.68056525
 H  -8.08383630   1.25921131  -2.50168785
 C  -5.28785718  -0.11975661  -3.92439200
 H  -5.01885933  -0.79057132  -4.73121460
 N  -0.03114345  -0.62467749  -0.03610538
 H  -0.52038373  -1.29804707  -0.61987601
 C   1.41770013  -0.82657062  -0.00113355
 H   1.81662936  -0.05918979   0.66232158
 C   1.94234707  -0.65331585  -1.42475432
 C   1.75208232  -2.19705817   0.59073733
 H   1.28693697  -2.97027833  -0.03875789
 O   2.09438124  -1.59479957  -2.20300306
 C   3.24983359  -2.41501618   0.69016366
 H   3.71889222  -2.36389444  -0.29328357
 H   3.44470144  -3.39047609   1.13723679
 H   3.67521743  -1.64484222   1.33650175
 O   1.26584634  -2.28452278   1.92947795
 H   0.31417022  -2.43171482   1.93779427
 N   2.17717022   0.63277220  -1.78200302
 H   1.95850777   1.39795386  -1.15596917
 C   2.71524571   0.94994090  -3.08029811
 H   3.12062793   0.02446788  -3.50083872
 C   3.83748478   1.95318689  -2.92382829
 C   1.67106151   1.50066885  -4.06277457
 H   2.18211324   1.70059709  -5.00069326
 H   1.28794734   2.45755281  -3.70160984
 O   4.02541034   2.64728183  -1.96048262
 C   0.51726089   0.53357001  -4.29942606
 H   0.90228993  -0.47282905  -4.46367890
 H  -0.11389438   0.49093523  -3.40247603
 C  -0.35564474   0.95493153  -5.46626194
 H  -1.27225679   0.35040015  -5.49726011
 H  -0.65947131   1.99608602  -5.33275243
 N   0.37021633   0.85483898  -6.72543467
 H   0.81040728  -0.04049964  -6.86663244
 N   0.51116227   0.96170711  -9.02230472
 H   0.16807255   1.44776862  -9.83889430
 H   1.50848181   1.05783403  -8.90902905
 N  -1.32779560   1.96260574  -8.02036736
 H  -1.77503079   2.08417455  -7.11855372
 C  -0.23057320   1.31711273  -7.89793680
 O   4.60631496   2.00441637  -4.03128970
 H   5.27532891   2.67854721  -3.85863950
 H  -1.18537365  -1.05487997   1.37594653
