21
conf-674
 N  -4.16861883  -1.06878888   3.46580121
 H  -4.80003800  -1.06041451   2.65745351
 H  -3.66952631  -1.96315782   3.46954214
 H  -4.73529699  -1.00859693   4.31257497
 C  -3.19212165   0.05604016   3.39924530
 H  -3.75531336   0.98641168   3.36565371
 C  -2.38180679  -0.03909427   2.16982661
 C  -2.26236500   0.07736335   4.61937090
 H  -2.88192591   0.21147939   5.51258859
 H  -1.75835127  -0.88800267   4.68649580
 O  -1.67457608  -1.15983281   1.99101488
 C  -1.25745969   1.22114584   4.51131682
 H  -0.53901957   1.02965283   3.71099443
 H  -0.73575116   1.39840307   5.45303360
 C  -2.11286909   2.45577751   4.16109778
 O  -1.93631302   2.94510130   3.02637387
 O  -2.90465077   2.82646541   5.03487857
 N  -2.41522490   0.88890856   1.24142194
 H  -2.53905548   1.87043834   1.51569338
 C  -1.95808993   0.72323182  -0.14638992
 H  -2.07672093  -0.30828865  -0.46269388
 C  -0.46385230   1.05118480  -0.11483973
 C  -2.76012801   1.64201581  -1.04832920
 H  -2.42164945   1.46348370  -2.07328345
 H  -2.51458763   2.68692562  -0.85285552
 O  -0.03996831   2.23064420  -0.09513831
 C  -4.24999246   1.48309956  -0.88564262
 C  -5.16119430   2.49045340  -1.07522143
 H  -5.00959776   3.50799907  -1.40050408
 C  -5.00991010   0.33448852  -0.44689146
 C  -6.36036828   0.72584980  -0.37479523
 C  -4.69202820  -0.99731540  -0.11460698
 H  -3.68605279  -1.38410784  -0.20683152
 N  -6.42859404   2.03758371  -0.78363072
 H  -7.26671464   2.58242001  -0.84327803
 C  -7.02467927  -1.40667427   0.43131744
 H  -7.77713807  -2.09507308   0.79514859
 C  -7.38363882  -0.11796141   0.07117298
 H  -8.40834466   0.22891578   0.13193172
 C  -5.69537966  -1.83859073   0.32410819
 H  -5.44028399  -2.85275701   0.61607207
 N   0.31227691  -0.08425275   0.05028728
 H   0.03391081  -0.90707763  -0.46763618
 C   1.74439134   0.08117374   0.26698396
 H   1.86028125   1.09583244   0.64431137
 C   2.46832951  -0.08156377  -1.06456510
 C   2.26426271  -0.88141358   1.33569310
 H   2.18045817  -1.90951870   0.95731037
 O   3.09722030  -1.08360152  -1.37243350
 C   3.70182981  -0.56752082   1.72016244
 H   4.36640062  -0.62622134   0.85727265
 H   4.03736771  -1.27155370   2.48256152
 H   3.74245387   0.44086887   2.13557124
 O   1.51200943  -0.73470020   2.53857037
 H   0.69665782  -1.23864892   2.48331588
 N   2.34456128   0.96031972  -1.92485011
 H   1.73625885   1.73370051  -1.68980975
 C   3.06315858   0.91972956  -3.18686489
 H   2.79689338  -0.00359048  -3.71233261
 C   4.56136907   0.87888101  -2.93358894
 C   2.69283372   2.11955833  -4.05974259
 H   1.60570479   2.08945905  -4.18975017
 H   3.13408621   1.99017676  -5.05070744
 O   5.13213671   1.31263694  -1.96424414
 C   3.12329703   3.44716484  -3.45104728
 H   2.88196419   3.44257218  -2.38910984
 H   4.20921366   3.55764760  -3.51375150
 C   2.45665745   4.66774116  -4.09148455
 H   2.71402386   5.56102265  -3.51903130
 H   2.83332041   4.82579677  -5.10401281
 N   0.99924219   4.58643077  -4.19639671
 H   0.71499981   4.11784198  -5.04348620
 N   0.59762050   4.72473657  -1.91143889
 H  -0.01873256   4.48116017  -1.15228124
 H   0.88888687   5.68684615  -1.95342152
 N  -0.66602819   3.24524914  -3.16794256
 H  -0.73448652   2.88867034  -4.11951965
 C   0.24653722   4.14969930  -3.10653770
 O   5.20932551   0.33962602  -3.99038813
 H   6.14653491   0.36488005  -3.76233357
 H  -0.97673309  -0.96233387   1.31169044
