21
conf-602
 N  -3.49658954  -1.86133357   2.53751485
 H  -3.93302743  -2.00886671   1.62580384
 H  -2.60453476  -2.36513384   2.54817579
 H  -4.09645146  -2.27007811   3.25402132
 C  -3.28424352  -0.41289795   2.78628372
 H  -4.23380659   0.11218617   2.77651788
 C  -2.45723402   0.12669531   1.66598216
 C  -2.53111617  -0.17739594   4.09141751
 H  -1.65771256  -0.83570697   4.09968883
 H  -2.12555243   0.83611556   4.07362940
 O  -1.33981247  -0.55365899   1.43991163
 C  -3.37825843  -0.41079769   5.32589171
 H  -3.75661365  -1.43848477   5.35796723
 H  -4.24010557   0.25606225   5.36910939
 C  -2.54714819  -0.23111107   6.63189710
 O  -3.20402561   0.17832807   7.60667839
 O  -1.35071012  -0.56712843   6.57257721
 N  -2.78080936   1.23520963   1.05851198
 H  -3.69878554   1.56370198   1.32409285
 C  -2.32477052   1.73753774  -0.26934111
 H  -2.48651840   0.93180031  -0.99054981
 C  -0.84367421   2.07730785  -0.18911278
 C  -3.13442892   2.98067988  -0.64205790
 H  -2.84067115   3.29337594  -1.64666055
 H  -2.85416086   3.78968181   0.03412502
 O  -0.43365861   3.13796278   0.26355925
 C  -4.61259287   2.74535899  -0.60442724
 C  -5.40131856   2.31648447  -1.63552134
 H  -5.13902845   2.09121024  -2.65819290
 C  -5.48117555   2.89551203   0.53796058
 C  -6.77546072   2.52362259   0.13286092
 C  -5.26826780   3.31177605   1.85625779
 H  -4.27640276   3.60517666   2.19272233
 N  -6.70006537   2.16810849  -1.19274392
 H  -7.47197240   1.86466831  -1.75572266
 C  -7.63001707   2.94932864   2.30706625
 H  -8.44798290   2.97689910   3.01624374
 C  -7.86705531   2.53775481   1.00429301
 H  -8.85482294   2.24005287   0.67122536
 C  -6.34433314   3.33623475   2.72820949
 H  -6.19364819   3.64856898   3.75314307
 N  -0.01256886   1.06210777  -0.55786598
 H  -0.34986108   0.27353284  -1.09059581
 C   1.41563036   1.10126629  -0.28978995
 H   1.69336850   2.15166778  -0.17507897
 C   2.21845890   0.54105898  -1.47221184
 C   1.74936292   0.34213618   1.00501916
 H   2.80938899   0.08036782   0.99447323
 O   3.34331579   0.09179258  -1.34024689
 C   1.41059563   1.17176844   2.23001550
 H   1.96154890   2.11411339   2.20824686
 H   1.67408140   0.64496190   3.14796048
 H   0.34416115   1.39718143   2.25709063
 O   0.96607735  -0.85070076   0.95134785
 H   0.84512945  -1.20797880   1.83570205
 N   1.59789763   0.62761776  -2.68248892
 H   0.79022094   1.21879503  -2.76954012
 C   2.31502019   0.29531909  -3.89733417
 H   3.21855538  -0.23870630  -3.60481678
 C   2.69275541   1.56553243  -4.62495317
 C   1.45572460  -0.59143398  -4.80528649
 H   0.58444381  -0.01898507  -5.13449516
 H   1.08391865  -1.41246326  -4.18850265
 O   2.02234394   2.56653675  -4.66194558
 C   2.20412726  -1.15612274  -6.00316626
 H   2.54958141  -0.35345855  -6.65470531
 H   3.09929166  -1.67848640  -5.65804350
 C   1.33284874  -2.11336601  -6.80425692
 H   0.93374943  -2.90524763  -6.16573902
 H   0.47290377  -1.56683754  -7.20193262
 N   2.00528077  -2.72015173  -7.93956324
 H   2.14826053  -2.08796345  -8.71044003
 N   3.02767423  -4.36962899  -6.62428893
 H   3.87918028  -4.89955068  -6.52309998
 H   2.74797564  -3.89172856  -5.78572687
 N   3.93776407  -3.88398338  -8.68097353
 H   3.79153620  -3.31261109  -9.50842202
 C   3.04725945  -3.62827407  -7.79573361
 O   3.85996101   1.43805236  -5.29089598
 H   3.99447027   2.27075209  -5.75988121
 H  -0.78393242  -0.22133454   0.67660964
