21
conf-966
 N  -3.55738471   0.02262437   4.29651091
 H  -4.42730503  -0.34127895   3.90225186
 H  -2.91422253  -0.76418778   4.39288502
 H  -3.74756543   0.39024925   5.22693569
 C  -2.98063058   1.08579947   3.42964166
 H  -3.75708986   1.80451332   3.16009361
 C  -2.47758793   0.47906570   2.17167983
 C  -1.84130071   1.83907331   4.14594693
 H  -1.57847651   2.72926511   3.57003541
 H  -2.22032920   2.18941218   5.11041011
 O  -1.91174703  -0.70890216   2.18799374
 C  -0.59384909   0.99895724   4.32375544
 H  -0.22682186   0.67092235   3.34782402
 H  -0.76622236   0.10836704   4.92703491
 C   0.59390690   1.79234178   4.92951408
 O   1.44675055   1.06273095   5.47336191
 O   0.60661185   3.01806975   4.75361714
 N  -2.57135939   1.15572997   1.04154037
 H  -2.88099998   2.12199878   1.05925507
 C  -2.16931153   0.66561573  -0.30123412
 H  -2.49769643  -0.36927893  -0.39080111
 C  -0.65912407   0.75142567  -0.37599765
 C  -2.83096365   1.52782737  -1.37277150
 H  -2.34213039   1.32601847  -2.33175039
 H  -2.64628236   2.57546066  -1.14778753
 O  -0.07479699   1.80202374  -0.62881382
 C  -4.29992503   1.25467409  -1.46704381
 C  -5.32017339   2.08700906  -1.11070355
 H  -5.28511951   3.09865078  -0.73571348
 C  -4.91103693   0.02766665  -1.90975205
 C  -6.30186517   0.17890789  -1.77841237
 C  -4.38574190  -1.17834608  -2.38921152
 H  -3.31310631  -1.30936840  -2.50119593
 N  -6.52991371   1.44552075  -1.29305590
 H  -7.42977501   1.84340119  -1.10625636
 C  -6.65582268  -2.02619373  -2.58184479
 H  -7.31564100  -2.84237513  -2.85044586
 C  -7.19861025  -0.84235342  -2.10584948
 H  -8.26860494  -0.70886145  -1.99337845
 C  -5.26489747  -2.19064978  -2.72805244
 H  -4.88086639  -3.13112310  -3.10470703
 N   0.00064731  -0.38476030  -0.01640327
 H  -0.38098201  -1.29365539  -0.24381202
 C   1.43753255  -0.32512673   0.22090434
 H   1.63452627   0.67843932   0.60292287
 C   2.15606515  -0.54939854  -1.10514956
 C   1.80962576  -1.33564954   1.28942832
 H   1.55172565  -2.33917978   0.92622255
 O   2.59196264  -1.63861364  -1.45815264
 C   3.26753137  -1.26184708   1.69692635
 H   3.91388084  -1.48634796   0.84959530
 H   3.47465244  -1.97543436   2.49636671
 H   3.49150066  -0.25703050   2.05817491
 O   0.99239802  -0.98999036   2.41486450
 H   1.05045680  -1.70355899   3.05969152
 N   2.25364124   0.55736174  -1.88195671
 H   1.75518243   1.40489198  -1.63270842
 C   2.83869957   0.47244511  -3.19861998
 H   3.60303736  -0.30571833  -3.17970840
 C   3.48821444   1.79145837  -3.54992320
 C   1.80913417   0.09735157  -4.27747176
 H   1.42277997  -0.89089195  -4.01991509
 H   2.35139079  -0.00282704  -5.21902716
 O   3.27599152   2.84676373  -3.01064338
 C   0.67398411   1.10114857  -4.41201575
 H   0.10211455   1.14689073  -3.48328881
 H   1.07575398   2.09969327  -4.57671965
 C  -0.29436492   0.77294592  -5.54275289
 H  -0.63591475  -0.26097139  -5.46510018
 H  -1.18753131   1.40084175  -5.46432537
 N   0.24735284   0.94324449  -6.88171411
 H   0.95760789   0.27422946  -7.12675765
 N   1.23802753   2.14881720  -8.58061666
 H   1.27291411   3.05733830  -9.02159592
 H   0.93380880   1.42579085  -9.21389753
 N   0.19784162   3.34555689  -6.88891133
 H  -0.27430953   3.21729262  -6.00030948
 C   0.51427959   2.21232443  -7.39328011
 O   4.32823821   1.65821899  -4.59502205
 H   4.68252134   2.53984658  -4.76721501
 H  -1.17519243  -0.74805690   1.51252156
