188
190
N          2.64151       -8.09845       -0.62386
H          2.88846       -8.86591       -0.00493
H          3.29527       -8.07749       -1.40767
H          3.01818       -6.68388       -0.07825
C          1.25420       -8.22428       -1.09822
H          0.94998       -9.27083       -1.21622
C          1.13727       -7.51150       -2.44961
C          0.31945       -7.53618       -0.07929
H          0.63297       -7.79848        0.93722
H          0.40311       -6.44803       -0.16166
O          1.98682       -6.69332       -2.81057
C         -1.14096       -7.90174       -0.21021
O         -1.61832       -8.66282       -1.03391
O         -1.87469       -7.30583        0.73606
N          0.02415       -7.79972       -3.15484
H         -0.68085       -8.34385       -2.65943
C         -0.46016       -6.81163       -4.10144
H          0.27754       -6.69625       -4.90103
C         -0.63673       -5.47137       -3.35953
C         -1.82251       -7.22147       -4.70855
H         -2.49124       -7.50478       -3.88916
H         -1.67823       -8.09980       -5.34529
O         -1.13242       -5.43250       -2.23253
C         -2.39846       -6.05041       -5.47231
C         -3.29464       -5.17328       -4.84645
H         -3.68581       -5.42456       -3.86548
C         -1.89582       -5.69438       -6.72784
H         -1.20671       -6.35975       -7.24160
C         -3.64965       -3.96210       -5.43031
H         -4.33985       -3.28176       -4.94369
C         -2.23564       -4.47987       -7.32414
H         -1.82506       -4.21514       -8.29525
O         -3.44639       -2.37936       -7.16977
H         -3.07003       -2.27496       -8.05376
C         -3.10172       -3.60173       -6.66524
N         -0.24727       -4.39872       -4.07481
H          0.09013       -4.55435       -5.01550
C         -0.55822       -3.01938       -3.76642
H         -1.64217       -2.86807       -3.82661
C          0.14798       -2.17645       -4.82241
C         -0.07251       -2.56769       -2.35547
H          0.98820       -2.31501       -2.40997
H         -0.18432       -3.42923       -1.69629
O          1.09804       -2.63240       -5.47805
C         -0.88829       -1.40876       -1.83620
C         -0.39476       -0.09756       -1.80442
H          0.62036        0.08942       -2.12997
C         -2.20070       -1.63004       -1.39912
H         -2.59789       -2.64194       -1.40541
C         -1.17370        0.96282       -1.35320
H         -0.78355        1.97232       -1.30939
C         -2.99656       -0.57876       -0.95384
H         -4.01459       -0.76625       -0.62117
O         -3.21625        1.79514       -0.52316
H         -4.05161        1.49723       -0.14039
C         -2.48435        0.72395       -0.93058
N         -0.31388       -0.92463       -4.94774
H         -1.06026       -0.63298       -4.32593
C          0.41873        0.14716       -5.60712
H          1.01519       -0.32147       -6.39481
C          1.45149        0.68022       -4.58808
C         -0.58178        1.14707       -6.24404
H         -0.03833        2.04153       -6.56427
H         -0.94689        0.67252       -7.15943
O          2.25509       -0.10817       -4.06510
C         -1.76922        1.51213       -5.37134
C         -2.84793        0.61807       -5.26685
H         -2.85250       -0.29608       -5.85450
C         -1.82515        2.71282       -4.65155
H         -1.03746        3.45590       -4.73301
C         -3.92721        0.89696       -4.42859
H         -4.74861        0.19034       -4.36135
C         -2.91039        2.99458       -3.82195
H         -2.93376        3.92840       -3.27237
C         -3.95884        2.08472       -3.69969
H         -4.79243        2.30533       -3.04209
N          1.43930        1.98648       -4.30843
H          0.73151        2.60306       -4.68430
C          2.31028        2.60624       -3.31895
H          2.48882        1.87512       -2.52762
C          1.51064        3.80028       -2.77902
C          3.64516        3.06673       -3.91407
H          4.26792        3.52524       -3.14048
H          4.17700        2.20780       -4.32962
H          3.47266        3.79944       -4.70631
O          0.79020        4.44821       -3.54156
N          1.68626        4.05414       -1.47089
H          2.43040        3.57535       -0.96766
C          1.27474        5.28296       -0.80231
H          1.27984        6.09610       -1.53654
C          2.37195        5.54870        0.24456
C         -0.11113        5.17215       -0.13925
H         -0.10432        4.30698        0.52890
H         -0.26566        6.04889        0.50452
O          3.31458        4.75978        0.38683
C         -1.31440        5.07799       -1.08981
H         -1.18970        4.17942       -1.70642
C         -2.58907        4.91671       -0.25138
H         -2.78895        5.83582        0.31389
H         -3.45563        4.72829       -0.89318
H         -2.49800        4.09051        0.45680
C         -1.41939        6.28721       -2.02568
H         -1.46765        7.22015       -1.44956
H         -2.33504        6.23297       -2.62411
H         -0.57957        6.33993       -2.72134
N          2.24728        6.67065        0.97807
H          1.40770        7.22568        0.89862
C          3.21387        7.07014        2.00660
H          4.19467        6.75356        1.63655
C          2.95142        6.32827        3.33898
C          3.17076        8.57822        2.20312
H          3.91427        8.87910        2.94232
H          2.19566        8.88940        2.58793
H          3.37490        9.09142        1.26007
O          2.63089        6.92822        4.36158
N          3.12023        4.98627        3.28407
H          3.42162        4.52866        2.42541
C          3.01181        4.16706        4.46820
H          3.59188        4.62962        5.27838
C          3.61252        2.80600        4.12823
C          1.54795        4.03244        4.98246
H          1.21924        5.04395        5.22794
H          1.55541        3.46120        5.91832
O          3.99127        2.52225        2.99198
C          0.59634        3.44027        4.00036
C         -0.35930        4.03426        3.20788
H         -0.61960        5.08292        3.16993
N          0.52898        2.09240        3.68235
H          1.11613        1.33583        4.03015
C         -0.43751        1.94724        2.73062
H         -0.68768        0.98740        2.30352
N         -0.99947        3.10008        2.41939
N          3.64562        1.89900        5.13558
H          3.53212        2.17027        6.10448
C          4.18129        0.57170        4.91159
H          5.25313        0.62817        4.67008
C          3.42159       -0.10362        3.75999
C          3.97771       -0.25062        6.20493
H          2.90238       -0.42590        6.30059
O          2.20237       -0.28323        3.83609
C          4.72441       -1.57622        6.16584
H          4.40070       -2.18643        5.31813
H          5.80487       -1.41365        6.06730
H          4.54128       -2.13479        7.08621
O          4.32677        0.53375        7.34369
H          5.29242        0.56870        7.40359
N          4.18117       -0.54038        2.73764
H          5.12690       -0.19392        2.64430
C          3.63698       -1.17320        1.55124
H          2.74968       -1.73733        1.85274
C          4.72348       -2.05661        0.93906
C          3.25966       -0.14977        0.43245
H          4.14622        0.48320        0.30787
O          5.82471       -1.56420        0.70465
C          2.99452       -0.87387       -0.89207
H          2.18366       -1.60167       -0.78517
H          3.87821       -1.39527       -1.26720
H          2.70482       -0.17130       -1.67288
C          2.07280        0.73130        0.81859
H          1.18142        0.13014        1.01659
H          1.82796        1.41042       -0.00491
H          2.29008        1.34271        1.69205
N          4.34676       -3.32096        0.59002
H          3.41365       -3.60905        0.85322
C          4.84100       -3.99253       -0.61032
H          4.36955       -3.48537       -1.46137
C          4.29922       -5.41478       -0.72662
C          6.37475       -3.94684       -0.82075
H          6.83441       -3.55442        0.08305
H          6.73900       -4.96673       -0.97281
O          4.72137       -6.16525       -1.60770
C          6.79461       -3.06961       -2.00947
H          7.86603       -2.85274       -1.93973
H          6.28447       -2.10326       -1.93002
C          6.56234       -3.70298       -3.39225
H          7.23785       -4.55273       -3.52119
H          6.81564       -2.99732       -4.19062
N          5.21906       -4.24028       -3.63370
H          5.04153       -5.14134       -3.18611
N          4.21563       -2.24458       -4.33463
H          3.38541       -1.65354       -4.39948
H          5.10466       -1.77586       -4.31435
N          2.91790       -4.08680       -3.86188
H          2.16056       -3.65103       -4.39343
H          2.78733       -5.05281       -3.56992
C          4.12712       -3.52339       -3.94237
O          3.34740       -5.72593        0.11985
H         -2.80012       -7.57226        0.59767
