21
conf-997
 N  -8.99310638  -4.95548762  -12.64867824
 H  -9.76837823  -4.40498682  -13.02351212
 H  -8.12650420  -4.48458404  -12.92384420
 H  -9.01561759  -5.88272237  -13.07060593
 C  -9.03866526  -5.01696090  -11.17413019
 H  -10.04617443  -5.29503369  -10.86000824
 C  -8.69165449  -3.64497577  -10.59101774
 C  -8.05120109  -6.07376681  -10.63900552
 H  -8.43576092  -7.07430014  -10.84398468
 H  -7.08931690  -5.94098571  -11.13269942
 O  -7.88457571  -2.89934698  -11.12243841
 C  -7.77195765  -5.89839733  -9.17028678
 O  -6.71832556  -5.51729241  -8.73292373
 O  -8.84139724  -6.13224560  -8.39374715
 N  -9.34136788  -3.32687617  -9.43665918
 H  -9.76173689  -4.08970629  -8.92642559
 C  -8.85755013  -2.22904568  -8.61164183
 H  -8.29309872  -1.56659830  -9.26227885
 C  -7.92774264  -2.83043959  -7.54935861
 C  -10.00856665  -1.47188613  -7.93950008
 H  -10.51472174  -2.15344824  -7.25336829
 H  -10.72127868  -1.19612778  -8.71577062
 O  -8.35796864  -3.58086545  -6.64136200
 C  -9.53611667  -0.23663150  -7.21180721
 C  -8.95213893  -0.30750537  -5.94188237
 H  -8.82494754  -1.27233059  -5.46198068
 C  -9.65998490   1.02502455  -7.80229498
 H  -10.10811718   1.10747370  -8.78308959
 C  -8.52943081   0.84912005  -5.28296972
 H  -8.09514014   0.78613557  -4.29398704
 C  -9.22977919   2.18201057  -7.15503066
 H  -9.34181564   3.14623975  -7.63889097
 O  -8.23509198   3.19487579  -5.19308768
 H  -8.38821466   3.97881342  -5.72529419
 C  -8.66547078   2.09121450  -5.88614074
 N  -6.61682894  -2.50194782  -7.73612194
 H  -6.38231140  -1.79829065  -8.41669277
 C  -5.57238235  -2.93030488  -6.81477571
 H  -6.03987457  -3.61252183  -6.09967159
 C  -5.08069700  -1.67975052  -6.11403959
 C  -4.43634719  -3.62574227  -7.56027302
 H  -3.94279056  -2.88268658  -8.18748540
 H  -4.88116362  -4.38158830  -8.19879190
 O  -4.54975484  -0.77163924  -6.74779525
 C  -3.46260801  -4.27850779  -6.62283941
 C  -2.57376648  -3.50643983  -5.86610979
 H  -2.55165736  -2.43404193  -6.01101510
 C  -3.45253231  -5.65988660  -6.42896345
 H  -4.11947032  -6.28626883  -7.00382277
 C  -1.73039925  -4.09061450  -4.92679672
 H  -1.08806804  -3.47474081  -4.31293644
 C  -2.59174856  -6.25518267  -5.50863786
 H  -2.60168750  -7.33324530  -5.38508681
 O  -0.87506250  -5.98204823  -3.81765703
 H  -0.97169585  -6.93755941  -3.79280062
 C  -1.73109731  -5.46880119  -4.74970987
 N  -5.31788237  -1.61454550  -4.77851171
 H  -5.40911897  -2.47068587  -4.25865746
 C  -4.84579511  -0.45024079  -4.03813817
 H  -4.92228946   0.39053676  -4.72932154
 C  -3.38693200  -0.70510123  -3.66128773
 C  -5.69798315  -0.19722206  -2.79784036
 H  -6.74830401  -0.24061556  -3.09947913
 H  -5.53302399  -1.00962426  -2.08806595
 O  -3.08278479  -1.51056067  -2.75904704
 C  -5.38888565   1.14263099  -2.18474628
 C  -4.30052501   1.30115777  -1.32675232
 H  -3.69067828   0.43205535  -1.10840723
 C  -6.15310842   2.26985248  -2.50640834
 H  -6.97930283   2.16951326  -3.19688666
 C  -4.00530571   2.55083589  -0.78144617
 H  -3.16615227   2.65410007  -0.11108794
 C  -5.85682045   3.51946296  -1.96313632
 H  -6.46956670   4.37731579  -2.22165810
 C  -4.78209222   3.66225395  -1.09389037
 H  -4.54697795   4.63168274  -0.66696803
 N  -2.49814727  -0.03289735  -4.42754547
 H  -2.84800732   0.49054235  -5.21543726
 C  -1.06535565  -0.26270565  -4.34112095
 H  -0.94745256  -1.27325482  -3.93135181
 C  -0.46199226   0.73604152  -3.34770170
 C  -0.42480220  -0.15776034  -5.70479261
 H   0.65137916  -0.32080536  -5.63374299
 H  -0.85448753  -0.90489727  -6.38073384
 H  -0.59389777   0.83449743  -6.12424724
 O   0.12377698   1.75679502  -3.70633881
 N  -0.63770058   0.43451705  -2.04240011
 H  -1.17591888  -0.38593042  -1.79838821
 C  -0.04356745   1.24789394  -0.99599379
 H  -0.11674750   2.28346020  -1.34290308
 C   1.44078534   0.89692327  -0.85133187
 C  -0.76699789   1.08329612   0.32908229
 H  -1.84268347   1.18599446   0.14187310
 H  -0.60253103   0.06062738   0.67866008
 O   1.86890390   0.19649976   0.05587426
 C  -0.32797444   2.06725602   1.42092229
 H   0.76157327   1.96859278   1.53273637
 C  -0.62503226   3.52064939   1.06486022
 H  -1.70222976   3.72167914   1.07694491
 H  -0.15103335   4.18733607   1.79151031
 H  -0.23785028   3.78883356   0.08077804
 C  -0.97501992   1.68615727   2.74976098
 H  -2.06523277   1.71436592   2.66793485
 H  -0.68321868   2.37634395   3.54477386
 H  -0.67991929   0.68021725   3.05458864
 N   2.26216648   1.40103012  -1.80648483
 H   1.85163416   2.01708936  -2.49445435
 C   3.64975643   1.64579810  -1.45710281
 H   4.03652703   0.72262393  -1.01339368
 C   3.71575307   2.75356844  -0.38347704
 C   4.44210663   2.01905922  -2.70141834
 H   5.49967687   2.15473483  -2.46912719
 H   4.06088789   2.95307789  -3.12121025
 H   4.34358529   1.22958778  -3.44783995
 O   2.77166341   3.51192980  -0.16945730
 N   4.89690196   2.83540083   0.27905157
 H   5.66775248   2.21865147   0.07929879
 C   5.10263121   3.73487622   1.39394214
 H   4.94403791   4.76708861   1.06298870
 C   6.55891654   3.54386647   1.81842157
 C   4.11109082   3.49185864   2.55733643
 H   3.10249892   3.59782417   2.15850446
 H   4.25184141   4.27378179   3.30812976
 O   7.30740486   2.77447112   1.22046978
 C   4.23382837   2.14040522   3.18248464
 C   3.61930687   0.94632766   2.92411235
 H   2.87684069   0.74757317   2.16549165
 N   5.12586100   1.85580926   4.19418112
 H   5.78498910   2.50171750   4.60440140
 C   5.01205686   0.53524008   4.48892520
 H   5.61468586   0.07350997   5.25089580
 N   4.10650063  -0.05531533   3.74488762
 N   6.94250299   4.21135507   2.91695601
 H   6.34066296   4.89641465   3.35386715
 C   8.26772305   4.09036061   3.48433671
 H   8.59683874   3.05498800   3.34915967
 C   8.12038683   4.45647619   4.96861900
 C   9.28927696   5.00511785   2.75600073
 H   8.99314510   6.04595768   2.93272856
 O   7.23137036   5.20981709   5.33569598
 C   10.71874707   4.78358242   3.22258267
 H   10.85691595   5.05270389   4.27085042
 H   11.00715766   3.73372136   3.08679376
 H   11.38609634   5.39485198   2.61267548
 O   9.22344471   4.80409836   1.35761992
 H   8.90772167   3.90595264   1.20684467
 N   9.02800858   3.89506235   5.80385360
 H   9.79107776   3.36236745   5.41412403
 C   9.26717064   4.38379348   7.15450797
 H   8.76239772   5.34847271   7.26527458
 C   10.77989163   4.57104895   7.29081449
 C   8.69218434   3.42016289   8.21642626
 H   9.01060179   2.41452769   7.93195048
 O   11.56559870   3.81695281   6.73426948
 C   9.18954727   3.69155761   9.63546001
 H   8.94923961   4.71401080   9.94015508
 H   10.26825131   3.54437137   9.73530756
 H   8.69474395   3.01029164   10.33183868
 C   7.16671629   3.49826493   8.18375583
 H   6.84704049   4.47655980   8.55297304
 H   6.72366641   2.72941948   8.81800344
 H   6.77872792   3.38385879   7.17121189
 N   11.17242304   5.60551771   8.08697428
 H   10.52642913   6.01234543   8.75093016
 C   12.50265619   5.66100491   8.62598196
 H   12.97727772   4.67028822   8.58331737
 C   12.33860389   6.10283054   10.11549793
 C   13.42493563   6.67309702   7.94482540
 H   12.98543024   7.67210625   8.00320926
 H   14.34716553   6.68606852   8.53184915
 O   13.35744139   6.10452798   10.80811525
 C   13.71595286   6.30734630   6.49808475
 H   12.80479871   6.40587417   5.90884654
 H   14.02720956   5.26154608   6.43559869
 C   14.80219713   7.17324440   5.87197032
 H   14.97018780   6.89128095   4.82932988
 H   15.75066224   7.01407761   6.38940286
 N   14.54623556   8.62537672   5.94520205
 H   14.80558052   9.06170323   6.81748394
 N   12.97942159   8.61943351   4.21673382
 H   12.07664388   8.95951277   3.92543001
 H   13.09593932   7.62069746   4.15103235
 N   13.20880050   10.50783077   5.58031294
 H   12.78963140   11.04341488   4.83139658
 H   13.88133383   11.03837783   6.12218335
 C   13.57953441   9.23856147   5.25556236
 O   11.16970210   6.41174959   10.44283911
 H  -8.58248784  -5.81055290  -7.51547676
