21
conf-651
 N  -12.93696894  -7.51465560  -6.87826116
 H  -13.38815856  -6.65849223  -6.55035004
 H  -12.72454321  -7.38256258  -7.87012656
 H  -13.59128146  -8.28827105  -6.77508165
 C  -11.67286462  -7.76202392  -6.15797476
 H  -11.84476801  -7.67638549  -5.08229134
 C  -10.65521423  -6.70459785  -6.60328742
 C  -11.14052035  -9.16346058  -6.45594550
 H  -11.94959580  -9.88173008  -6.29368906
 H  -10.84386392  -9.24004255  -7.50282031
 O  -10.72451743  -6.18092963  -7.70791274
 C  -10.00653519  -9.58199753  -5.56919378
 O  -9.82668396  -9.16912381  -4.44575982
 O  -9.21541459  -10.50736563  -6.13867669
 N  -9.67197867  -6.41746872  -5.72612747
 H  -9.59027852  -6.88942414  -4.83269686
 C  -8.65804321  -5.44758057  -6.07529999
 H  -8.34379064  -5.63926323  -7.10781818
 C  -7.48336392  -5.62900429  -5.11621385
 C  -9.20979257  -4.00618730  -6.00483365
 H  -9.27369826  -3.69935798  -4.95901753
 H  -10.21933587  -4.02501201  -6.41574211
 O  -7.64696978  -6.03996978  -3.98189287
 C  -8.35075018  -3.08033068  -6.81635914
 C  -7.31864308  -2.34321681  -6.24842130
 H  -7.12758747  -2.40030734  -5.18008903
 C  -8.50830980  -3.04350132  -8.20240833
 H  -9.29192720  -3.64777301  -8.64934051
 C  -6.44010394  -1.61144617  -7.03715230
 H  -5.60285113  -1.11030898  -6.57104747
 C  -7.66951247  -2.26966804  -8.99875688
 H  -7.81575682  -2.24235819  -10.07280586
 O  -5.74601156  -0.79715126  -9.13114012
 H  -5.98309036  -0.84332247  -10.06082903
 C  -6.62777249  -1.55239589  -8.40842283
 N  -6.25872876  -5.29550485  -5.61082968
 H  -6.23755182  -4.66160406  -6.39809441
 C  -5.11391317  -5.25465065  -4.70925189
 H  -5.35965053  -5.92393053  -3.88621967
 C  -4.95536978  -3.81632754  -4.18732807
 C  -3.81958433  -5.71519918  -5.40495605
 H  -3.50396974  -4.92984938  -6.09577790
 H  -4.04416665  -6.60990727  -5.98487612
 O  -4.77320851  -2.89530296  -4.99385716
 C  -2.74624737  -6.02309062  -4.39361176
 C  -2.07356235  -5.01154524  -3.69997534
 H  -2.27310722  -3.96347506  -3.93295747
 C  -2.45617652  -7.34864396  -4.06028345
 H  -2.96222615  -8.14549416  -4.58783673
 C  -1.16984585  -5.31940149  -2.68578951
 H  -0.67701690  -4.54457034  -2.11364403
 C  -1.53176679  -7.66644363  -3.06923748
 H  -1.32104273  -8.70469185  -2.83725046
 O   0.01228568  -6.86608436  -1.37907703
 H   0.12209673  -7.81260578  -1.25926591
 C  -0.89070633  -6.64151865  -2.38045140
 N  -5.12424978  -3.65001290  -2.84564981
 H  -4.92211145  -4.45075344  -2.27007289
 C  -4.84079389  -2.34499111  -2.24676563
 H  -5.31301972  -1.60514347  -2.89570176
 C  -3.31828362  -2.09581752  -2.23813749
 C  -5.41846079  -2.28943420  -0.82790028
 H  -6.41302474  -2.73175041  -0.85792440
 H  -4.78564799  -2.90901069  -0.18892255
 O  -2.53599996  -2.91337324  -1.72323195
 C  -5.50497106  -0.88180998  -0.30232563
 C  -4.38206171  -0.25252943   0.24349767
 H  -3.45388937  -0.80098718   0.30954157
 C  -6.69594680  -0.16262078  -0.39030090
 H  -7.57379373  -0.64199505  -0.80613700
 C  -4.45887305   1.06552800   0.68705055
 H  -3.58067659   1.54056954   1.10943928
 C  -6.77222554   1.15548919   0.05432907
 H  -7.71104756   1.69256291  -0.02394459
 C  -5.65076398   1.77497890   0.59502825
 H  -5.70208202   2.80045477   0.94348945
 N  -2.92861411  -0.98936949  -2.90739087
 H  -3.63294537  -0.40020140  -3.30278854
 C  -1.54128373  -0.55585838  -2.93530132
 H  -0.94217472  -1.46770250  -2.85619997
 C  -1.25203177   0.34257915  -1.72184789
 C  -1.25156013   0.17034347  -4.23430697
 H  -0.19737146   0.45198005  -4.28724769
 H  -1.48852889  -0.48280739  -5.07618832
 H  -1.85030228   1.08039915  -4.30562212
 O  -1.31737439   1.56194966  -1.77167401
 N  -0.95720831  -0.31534388  -0.57054683
 H  -0.92005553  -1.32320920  -0.59706711
 C  -0.39593616   0.40440971   0.56192969
 H  -0.88508679   1.37952646   0.58096031
 C   1.10943803   0.60108521   0.37085702
 C  -0.66653977  -0.35064372   1.86220998
 H  -1.74528696  -0.52197036   1.92687496
 H  -0.18311868  -1.32872141   1.79972788
 O   1.85790201  -0.35195074   0.19514802
 C  -0.20822701   0.33282394   3.15612758
 H   0.89218108   0.40249461   3.13147502
 C  -0.76696373   1.74206047   3.32753914
 H  -1.85886823   1.73571818   3.25784572
 H  -0.48653161   2.13573051   4.30837950
 H  -0.36339850   2.43377629   2.58912866
 C  -0.60714874  -0.55183730   4.33663772
 H  -1.69436868  -0.62841835   4.39835254
 H  -0.23694650  -0.13545193   5.27754207
 H  -0.19480267  -1.55849729   4.22523786
 N   1.55630652   1.89016155   0.42828371
 H   0.90023791   2.57953660   0.75650835
 C   2.94825697   2.14818464   0.80145538
 H   3.54133391   1.35883856   0.33952956
 C   3.07586869   2.08386879   2.33990687
 C   3.38639359   3.52502410   0.33010311
 H   4.45645893   3.65708515   0.50639927
 H   2.85413709   4.29443583   0.89195004
 H   3.18204770   3.64477240  -0.73343277
 O   2.42436961   2.87066899   3.07052014
 N   3.93879227   1.13231107   2.80308148
 H   4.45760485   0.58078621   2.14085739
 C   4.24476588   0.99093199   4.22094126
 H   3.35773740   1.36328947   4.74502162
 C   5.45578367   1.86420512   4.59452953
 C   4.53425085  -0.46163215   4.58710830
 H   4.72906880  -0.52721469   5.65718297
 H   5.46615126  -0.76445297   4.10517779
 O   6.51953639   1.38896525   4.98966444
 C   3.45083778  -1.42527576   4.23794021
 C   2.79156106  -1.71363034   3.08204110
 H   2.85704063  -1.21519939   2.13168173
 N   2.94846504  -2.32999529   5.14338110
 H   3.21460848  -2.40046519   6.10880908
 C   2.04739008  -3.11341226   4.50072771
 H   1.50011035  -3.90205112   4.99254323
 N   1.92098972  -2.77021145   3.24872945
 N   5.30359777   3.19870664   4.44960934
 H   4.41008820   3.57954553   4.16366555
 C   6.39787978   4.10026973   4.75979270
 H   7.31525651   3.57569230   4.47771403
 C   6.39845522   4.37914172   6.26670594
 C   6.29543081   5.38549750   3.93019878
 H   5.36080265   5.88410542   4.19605507
 O   5.90729144   5.38778690   6.76166995
 C   7.48711052   6.30597544   4.13455631
 H   7.58786760   6.60201197   5.17826918
 H   8.39860859   5.78745903   3.82677669
 H   7.36749785   7.19951115   3.51963556
 O   6.18181431   5.07308472   2.54558055
 H   7.01663364   4.68318975   2.27450532
 N   6.95943319   3.40701784   7.02846586
 H   7.18554115   2.52382280   6.59157764
 C   6.86333372   3.47685178   8.47364764
 H   5.80767138   3.62590188   8.73003346
 C   7.62747979   4.69590772   8.99984249
 C   7.34119188   2.16213750   9.13212160
 H   6.83806028   1.37113818   8.56571623
 O   8.69550747   5.06900009   8.55163102
 C   8.85424212   1.97411226   9.02672141
 H   9.36806330   2.69309674   9.66567946
 H   9.20839564   2.12197071   8.00392595
 H   9.13305802   0.96803676   9.34967271
 C   6.88724151   2.06510211   10.58751027
 H   7.31484029   2.86719203   11.19052889
 H   7.19430601   1.11174579   11.02232563
 H   5.79640332   2.12926949   10.66418075
 N   7.01688510   5.31880046   10.04974891
 H   6.37644236   4.81831124   10.64953372
 C   7.71397234   6.31165402   10.81248428
 H   8.79818907   6.18359857   10.68344303
 C   7.33504429   6.04220413   12.30206871
 C   7.34113913   7.75072354   10.45351766
 H   6.27524884   7.91801351   10.61983088
 H   7.88485071   8.40458188   11.13961903
 O   7.86807929   6.75474712   13.15108783
 C   7.69759405   8.07585867   9.01025172
 H   7.13862817   7.43184656   8.33476792
 H   8.75424245   7.85213373   8.84326712
 C   7.42709783   9.52956570   8.67862218
 H   7.81725713   9.78416285   7.68674516
 H   7.93263615   10.16723400   9.40703801
 N   5.96997491   9.77724859   8.74817675
 H   5.40903796   9.02650012   8.36991457
 N   6.23241459   12.08536935   8.46160636
 H   5.82219712   12.99424627   8.60563044
 H   7.19576536   11.98983908   8.73681342
 N   4.10633392   11.09633285   8.36323132
 H   3.70138374   12.01740439   8.43160999
 H   3.53559314   10.35844165   8.75290457
 C   5.44560196   10.99611049   8.54098274
 O   6.52220347   5.10281656   12.46510745
 H  -8.53540281  -10.72261398  -5.48527511
