21
conf-535
 N  -2.12136626   0.32044571  -4.07238646
 H  -3.05255258   0.40256431  -3.66242733
 H  -1.72689964   1.26111259  -4.13961434
 H  -2.20662234  -0.06522222  -5.01200011
 C  -1.23827753  -0.50372928  -3.22661843
 H  -1.73106859  -1.45581897  -3.01077079
 C  -0.98567409   0.21335138  -1.90552757
 C   0.09127653  -0.78790020  -3.91449029
 H   0.80700053  -1.16268781  -3.17347883
 H   0.49545956   0.16012885  -4.28581178
 O  -1.10893961   1.42681284  -1.78074323
 C   0.01124257  -1.77144690  -5.06238565
 H  -0.40011176  -2.73511057  -4.76413437
 H  -0.60808104  -1.39460703  -5.88322006
 C   1.41321135  -2.01121033  -5.67816690
 O   1.52914150  -3.07520342  -6.30277889
 O   2.25146448  -1.09330538  -5.53784251
 N  -0.60897883  -0.59960009  -0.87997503
 H  -0.26723393  -1.51580884  -1.11312338
 C  -0.09132454  -0.02984125   0.35826131
 H  -0.63477269   0.89962717   0.52188718
 C   1.39537237   0.28450197   0.13570749
 C  -0.34422605  -0.97760318   1.51616779
 H   0.09839911  -1.94944802   1.28538330
 H  -1.42644616  -1.12148487   1.56711238
 O   2.30554142  -0.54362088   0.34804353
 C   0.15675618  -0.50482306   2.88668411
 H   1.24916574  -0.56623361   2.87532496
 C  -0.23893213   0.93812657   3.17903897
 H  -1.32090463   1.06741825   3.06776848
 H   0.02310467   1.20379883   4.20637362
 H   0.26434959   1.64740242   2.51733871
 C  -0.37605673  -1.44290904   3.96924163
 H  -1.46497643  -1.37310481   4.02489363
 H  -0.11121903  -2.48188338   3.76025536
 H   0.03250349  -1.18244269   4.94813618
 N   1.59970437   1.51615277  -0.39396920
 H   0.81830992   2.14341750  -0.52542045
 C   2.92279896   2.06083910  -0.56481197
 H   3.63003766   1.30438862  -0.21938166
 C   3.06633589   3.28289660   0.31554221
 C   3.23124996   2.44258054  -2.01663708
 H   4.27453021   2.75962694  -2.05536466
 H   2.62960400   3.31076356  -2.30003777
 O   2.15640148   3.91261882   0.78717679
 C   2.99173100   1.32200301  -3.02219888
 H   1.91625197   1.09757856  -3.06953543
 H   3.27265965   1.66728092  -4.02118840
 C   3.73321863   0.03655772  -2.70825805
 H   3.46860000  -0.73615328  -3.43417105
 H   3.42397742  -0.31565950  -1.73155384
 N   5.18891206   0.28955522  -2.72727308
 H   5.49760618   0.87103829  -3.49400633
 N   5.71092154  -1.66454772  -1.55614172
 H   6.31867306  -2.47076750  -1.52678083
 H   4.72259055  -1.85996160  -1.48747887
 N   7.39122749  -0.47120186  -2.67366740
 H   8.05277905  -0.92443092  -2.05649046
 H   7.66781355   0.47007330  -2.92854006
 C   6.08517162  -0.62297952  -2.32585497
 O   4.36158269   3.61670827   0.49031227
 H   4.35840200   4.41073217   1.03977766
