21
conf-962
 N  -2.53673566  -0.83093608  -4.28151695
 H  -3.21628530  -1.48942292  -3.89829059
 H  -2.90329066   0.10809670  -4.11581425
 H  -2.45639952  -0.97406531  -5.28611312
 C  -1.23012070  -0.96861948  -3.61490502
 H  -0.98478491  -2.03060853  -3.52457203
 C  -1.32774928  -0.40367833  -2.19354646
 C  -0.11191101  -0.30171925  -4.42307527
 H   0.06274923  -0.89370656  -5.32774778
 H   0.81799315  -0.31876687  -3.84300156
 O  -2.25296465   0.31291733  -1.83380355
 C  -0.38548620   1.13703674  -4.84817552
 H  -1.25734251   1.18770648  -5.50616750
 H  -0.53825334   1.78628365  -3.98602952
 C   0.87522223   1.56829598  -5.62821389
 O   0.86282271   1.32722185  -6.84884022
 O   1.77928936   2.07888811  -4.94340122
 N  -0.31108485  -0.78358164  -1.37410180
 H   0.54540251  -1.13527001  -1.77862987
 C  -0.10333817  -0.18517652  -0.07539458
 H  -0.73782204   0.70053629   0.00663145
 C   1.37236151   0.22497362  -0.03550311
 C  -0.42223077  -1.14570436   1.06965116
 H  -0.13742468  -0.67262244   2.01187470
 H   0.20853992  -2.03138314   0.95918956
 O   2.18056419  -0.19920088  -0.84399240
 C  -1.88403366  -1.58625701   1.17226427
 H  -2.18126817  -2.02154619   0.21757630
 C  -2.01260309  -2.66614245   2.24303698
 H  -1.70623477  -2.27464506   3.21660370
 H  -3.04403169  -3.01636835   2.32665508
 H  -1.38280842  -3.52664563   2.00689413
 C  -2.81033416  -0.41343132   1.48161021
 H  -2.54074984   0.03493243   2.44265023
 H  -2.76229293   0.36032233   0.71522878
 H  -3.84628837  -0.75538916   1.54928184
 N   1.71615480   1.05586010   0.97656463
 H   1.03898665   1.31815163   1.67224322
 C   3.10479932   1.42866296   1.16408165
 H   3.72192568   0.55035764   0.95992074
 C   3.39784345   1.85848253   2.58396305
 C   3.55680846   2.53514781   0.19830645
 H   3.30713858   2.19333992  -0.80635379
 H   4.64527767   2.59753456   0.26207354
 O   4.49933454   2.15614115   2.96822445
 C   2.94934992   3.90070219   0.48439630
 H   1.86389684   3.84145416   0.49078916
 H   3.25835678   4.23869111   1.47473279
 C   3.37630561   4.92355309  -0.55683454
 H   3.10148538   4.58121135  -1.56007683
 H   4.46338387   5.02223652  -0.54400332
 N   2.84739436   6.28227363  -0.33984041
 H   3.32200824   6.82436361   0.36848899
 N   0.69261815   5.69975479  -1.02769269
 H  -0.18035019   6.01268178  -1.42091796
 H   1.07015460   4.84988917  -1.41272431
 N   1.13233455   7.82322624  -0.12648236
 H   0.22400609   8.12519606  -0.44697611
 H   1.82862213   8.55528395  -0.07760700
 C   1.55782813   6.59822098  -0.52251603
 O   2.30622937   1.90725687   3.37777818
 H   2.60857843   2.19070996   4.24996145
