21
conf-477
 N  -2.39782784  -1.60717118  -4.27294612
 H  -3.23811795  -1.96774000  -3.81985630
 H  -2.54645491  -0.60801619  -4.42687566
 H  -2.27647103  -2.05784706  -5.17737646
 C  -1.21086430  -1.79585584  -3.41850270
 H  -1.26083565  -2.78301526  -2.94879909
 C  -1.22475789  -0.75152270  -2.29959673
 C   0.08145473  -1.73206555  -4.23789287
 H   0.07773023  -2.57533999  -4.93176012
 H   0.93260250  -1.88222727  -3.56813913
 O  -1.96116782   0.22637752  -2.32947960
 C   0.26262868  -0.44624155  -5.02609012
 H  -0.57898908  -0.29645998  -5.71078147
 H   0.30602801   0.43791225  -4.38595717
 C   1.52109277  -0.47499857  -5.90758024
 O   1.85658804   0.64111362  -6.37704052
 O   2.06536933  -1.56494629  -6.14185087
 N  -0.36331438  -1.00815351  -1.27546892
 H   0.37247690  -1.68341014  -1.41630393
 C   0.00202446   0.01848247  -0.32278381
 H  -0.46315497   0.95578603  -0.63518005
 C   1.52654642   0.15082243  -0.39707980
 C  -0.44703121  -0.30906073   1.09710006
 H  -0.06812761   0.46660495   1.76831633
 H   0.01918165  -1.24820418   1.40524516
 O   2.22987292  -0.75236836  -0.82098201
 C  -1.96407099  -0.42155588   1.27891729
 H  -2.33904853  -1.16174944   0.56929445
 C  -2.27180065  -0.91677589   2.68895863
 H  -1.89500991  -0.20808977   3.43115083
 H  -3.34791282  -1.02773363   2.84128846
 H  -1.80403969  -1.88624878   2.87445303
 C  -2.66982891   0.90485229   1.01257598
 H  -2.31334062   1.66666494   1.71282083
 H  -2.50259094   1.26658922  -0.00212513
 H  -3.74803858   0.79662516   1.15688766
 N   2.02427836   1.32906773   0.04958817
 H   1.42468704   1.99056236   0.51733474
 C   3.44755131   1.58354012   0.11116505
 H   3.97028109   0.62331261   0.15210565
 C   3.73414190   2.36193169   1.37648291
 C   3.95786345   2.36768830  -1.10758542
 H   5.01497685   2.58773196  -0.94859433
 H   3.43511428   3.32508410  -1.16222070
 O   2.90997330   2.92609304   2.05096094
 C   3.77027143   1.59244232  -2.40311615
 H   4.32592368   0.65745277  -2.35232921
 H   2.72606086   1.32275553  -2.52803029
 C   4.21230026   2.37206774  -3.63185529
 H   5.25718391   2.69041964  -3.54358222
 H   3.60833962   3.27968176  -3.71959714
 N   4.01518221   1.62957945  -4.87962854
 H   3.09031844   1.65563853  -5.31367683
 N   5.86891711   0.26378517  -4.54549480
 H   6.59926283  -0.23154727  -5.03524747
 H   6.18925249   0.92789688  -3.85953220
 N   4.47211826  -0.07175039  -6.38573451
 H   4.75370763  -1.04428200  -6.41388525
 H   3.48445202   0.05298085  -6.67087668
 C   4.77122918   0.60161885  -5.27126882
 O   5.05173258   2.37947163   1.65745335
 H   5.14404394   2.91020585   2.45884565
