21
conf-705
 N  -2.73185180  -0.09470100  -3.82159299
 H  -3.48574794  -0.33030864  -3.17288254
 H  -2.75436628   0.91771631  -3.96291199
 H  -2.92216578  -0.54079339  -4.71848539
 C  -1.41282561  -0.51741082  -3.29587390
 H  -1.41979893  -1.60233177  -3.17126863
 C  -1.15560306   0.12465765  -1.91415748
 C  -0.29953951  -0.11154986  -4.26835705
 H  -0.19175686   0.97445470  -4.18636636
 H  -0.64472582  -0.32213668  -5.28482936
 O  -1.39688932   1.34070570  -1.68604143
 C   1.03192727  -0.80671132  -4.05069211
 H   1.47525991  -0.57137698  -3.08343834
 H   0.90695103  -1.89348996  -4.09851726
 C   2.03581825  -0.48351433  -5.18880644
 O   3.23980062  -0.55331364  -4.87148224
 O   1.55655331  -0.28816126  -6.31306063
 N  -0.59568571  -0.71370459  -0.99652769
 H  -0.25504798  -1.60990848  -1.30381156
 C  -0.11560393  -0.20214389   0.27950136
 H  -0.54964196   0.78490901   0.40967888
 C   1.38892745   0.02715128   0.19197700
 C  -0.58313117  -1.05074633   1.43838479
 H  -0.20065471  -0.60837001   2.36047746
 H  -0.16037226  -2.05453471   1.37517255
 O   2.20918684  -0.60696738   0.83705107
 C  -2.11375428  -1.10073196   1.49445165
 H  -2.46715625  -1.72238072   0.66618128
 C  -2.55321491  -1.74943664   2.80313526
 H  -2.26766664  -1.12240126   3.65208170
 H  -3.63726475  -1.88280693   2.83221386
 H  -2.09135115  -2.73117676   2.93653266
 C  -2.73316590   0.28817135   1.33628526
 H  -2.29285479   0.97722683   2.06551728
 H  -2.58477278   0.71282844   0.34360114
 H  -3.80984235   0.24855784   1.51723592
 N   1.73624442   0.97568658  -0.72525850
 H   1.00326253   1.51822386  -1.17051343
 C   3.11444232   1.40698893  -0.86887583
 H   3.70887905   0.71297634  -0.27624916
 C   3.26196550   2.78893331  -0.26179464
 C   3.55477328   1.38144703  -2.32326914
 H   2.95890072   2.11608507  -2.87198962
 H   3.32143514   0.39760994  -2.73360171
 O   3.40177520   3.81803704  -0.88153273
 C   5.04086289   1.65388139  -2.51321565
 H   5.31830879   2.56904644  -1.99405080
 H   5.61481440   0.84483281  -2.06272684
 C   5.39833055   1.78767297  -3.98648460
 H   4.74741279   2.52671305  -4.46459202
 H   5.23053439   0.84111789  -4.49281384
 N   6.80377046   2.16103860  -4.23763867
 H   7.47408483   1.40648893  -4.21061859
 N   6.46746938   4.40738010  -3.69995263
 H   6.87140886   5.23403156  -3.28684531
 H   5.54599825   4.17450981  -3.35767513
 N   8.63201951   3.59310581  -4.11870766
 H   8.92165793   4.55038384  -4.26832442
 H   9.13488804   2.92818780  -4.69486949
 C   7.29194647   3.38603586  -4.01316038
 O   3.18032382   2.75106126   1.08129661
 H   3.25764258   3.66714294   1.37686470
