21
conf-961
 N  -1.30396749   0.13950327  -4.45560297
 H  -2.04507686   0.80752404  -4.24229172
 H  -0.46445513   0.67416102  -4.66853168
 H  -1.58772181  -0.44210652  -5.26220614
 C  -1.06345522  -0.73859253  -3.30159520
 H  -1.91765600  -1.40990272  -3.18838552
 C  -0.91691379   0.10701219  -2.04127281
 C   0.17736353  -1.63405950  -3.48743693
 H   0.10308599  -2.44724149  -2.75726684
 H   1.08710951  -1.07114702  -3.26515714
 O  -0.85275183   1.32241717  -2.07289820
 C   0.23757743  -2.25255948  -4.88216594
 H   0.56101735  -1.52402961  -5.62890770
 H   0.91836473  -3.10635127  -4.89735435
 C  -1.18673349  -2.73758124  -5.15924183
 O  -1.86539015  -2.05848268  -5.95840212
 O  -1.55104954  -3.73608760  -4.52738676
 N  -0.85790551  -0.59739618  -0.87034020
 H  -0.61375387  -1.56907075  -0.96386004
 C  -0.32202379   0.04394013   0.32533821
 H  -0.90036791   0.95163544   0.49281334
 C   1.14374983   0.40724521   0.09690081
 C  -0.45909800  -0.92098788   1.50404760
 H   0.04871617  -1.84706043   1.22110647
 H  -1.52002158  -1.15484140   1.62178048
 O   1.92632345  -0.36599111  -0.44356441
 C   0.09714754  -0.44618081   2.84748412
 H   1.15390253  -0.19482105   2.70802112
 C  -0.63211021   0.78833988   3.36718952
 H  -1.68700158   0.55774618   3.53967784
 H  -0.19596642   1.12101762   4.31237022
 H  -0.57784733   1.63083031   2.67420980
 C   0.01007456  -1.58399777   3.86156380
 H  -1.03105725  -1.87878857   4.01124948
 H   0.56846593  -2.45754362   3.51915140
 H   0.41998413  -1.27979949   4.82698370
 N   1.51137813   1.63199012   0.55630865
 H   0.85897065   2.15345947   1.11617840
 C   2.90653007   1.98128329   0.69764878
 H   3.48953899   1.07714027   0.49785794
 C   3.15404185   2.39618670   2.12722498
 C   3.34318245   3.07403350  -0.28149423
 H   4.38896195   3.30687394  -0.07473785
 H   2.77154607   3.98533941  -0.09465412
 O   2.29598279   2.54434220   2.96429652
 C   3.18484698   2.64162933  -1.73408462
 H   3.73630073   1.71660618  -1.89706374
 H   2.14306885   2.41748945  -1.94862453
 C   3.68750461   3.70747789  -2.69446046
 H   4.70979491   4.00328949  -2.43557485
 H   3.06787376   4.60178826  -2.59632933
 N   3.63794391   3.33262601  -4.11882028
 H   2.72613763   3.37954904  -4.55129125
 N   5.48689918   1.91229154  -3.95517362
 H   6.26705849   1.48984896  -4.43292678
 H   5.69007922   2.31846379  -3.05680402
 N   4.24756082   2.04759077  -5.94482142
 H   4.98170384   1.53707678  -6.41298545
 H   3.72993618   2.68403724  -6.53656558
 C   4.47818181   2.44540348  -4.66940381
 O   4.46035126   2.59173571   2.38033590
 H   4.51837252   2.86025531   3.30555390
