21
conf-18
 N  -2.08519936  -1.31676958  -4.13046322
 H  -2.51505036  -2.12369173  -3.67475003
 H  -2.72323632  -0.52318618  -4.03790809
 H  -1.96365458  -1.51828925  -5.12084372
 C  -0.79502702  -0.95006239  -3.50907435
 H  -0.16894777  -1.84231573  -3.41475807
 C  -1.05849618  -0.36907729  -2.12220235
 C  -0.07164293   0.07848114  -4.38341825
 H  -0.70962712   0.95943663  -4.47775723
 H   0.04434228  -0.35133790  -5.38391472
 O  -1.98649597   0.40747460  -1.92438218
 C   1.30597202   0.52358896  -3.89450565
 H   1.23339767   1.07164987  -2.95197896
 H   1.98166200  -0.32703985  -3.77533347
 C   1.82728998   1.46660515  -5.00624138
 O   1.46360534   2.64975372  -4.90281222
 O   2.52015689   0.93159632  -5.88853799
 N  -0.18678627  -0.76255076  -1.15478648
 H   0.68573869  -1.18466050  -1.44074458
 C  -0.04892580  -0.01852577   0.08017083
 H  -0.65845178   0.88443510   0.00449826
 C   1.43112346   0.36368182   0.18243990
 C  -0.48326672  -0.82000015   1.30298773
 H  -0.27551924  -0.22753121   2.19788507
 H   0.13495174  -1.71865442   1.36877400
 O   2.29564262  -0.25113777  -0.42213342
 C  -1.95989905  -1.22704957   1.31717502
 H  -2.17512661  -1.76706289   0.39348741
 C  -2.21673585  -2.16870613   2.49000933
 H  -1.99231762  -1.66791710   3.43553228
 H  -3.26057916  -2.49014678   2.51557919
 H  -1.59119249  -3.06138078   2.41963506
 C  -2.88089124  -0.01263301   1.39300239
 H  -2.68772038   0.54918421   2.31206675
 H  -2.74362282   0.65756149   0.54373189
 H  -3.92722055  -0.32863603   1.40608433
 N   1.71557560   1.39229935   1.00996144
 H   1.00182554   1.85412716   1.54999176
 C   3.08455601   1.83385040   1.19865199
 H   3.72577571   0.95330889   1.30719808
 C   3.11136286   2.64039322   2.47436708
 C   3.57748487   2.64609554  -0.01177262
 H   3.02645353   3.58864860  -0.05888779
 H   3.28697913   2.06469816  -0.89150878
 O   2.13932853   3.08322446   3.03218584
 C   5.07854824   2.89523974  -0.03905366
 H   5.39404333   3.50085889   0.80972407
 H   5.60576150   1.94441596   0.03891529
 C   5.49306613   3.58615855  -1.32837588
 H   5.00524866   4.56169585  -1.38608088
 H   5.15149351   3.01149070  -2.19677221
 N   6.93831065   3.84827558  -1.45370051
 H   7.28204450   4.63685015  -0.92358905
 N   7.44549862   1.61211736  -1.90069404
 H   8.08492322   0.96395274  -2.33220166
 H   6.46874937   1.45251573  -2.08402089
 N   9.15471794   3.18863900  -1.57461182
 H   9.81728041   2.51508782  -1.92979623
 H   9.40920109   4.15524175  -1.72932272
 C   7.83824188   2.87797023  -1.66608896
 O   4.36848674   2.82567172   2.92178335
 H   4.30252189   3.37116313   3.71533909
