60
62
N          5.32404        5.97651       -3.98683
H          5.68761        5.33138       -3.23431
H          5.56376        5.46756       -4.87010
H          5.84560        6.85589       -3.96895
C          3.86098        6.18083       -3.80949
H          3.51994        6.93179       -4.52812
H          3.67987        6.54865       -2.79700
C          3.15079        4.85015       -4.09604
O          3.63295        4.07033       -4.92155
N          1.99964        4.67037       -3.43947
H          1.72881        5.26573       -2.65978
C          1.20981        3.45886       -3.55365
H          0.49682        3.52772       -4.38500
H          1.86599        2.60260       -3.72564
C          0.45709        3.26926       -2.23503
O          0.45638        4.15929       -1.37831
N         -0.20192        2.09571       -2.10708
H          0.13067        1.32814       -2.68121
C         -0.82301        1.72062       -0.83473
H         -1.57351        0.95117       -1.01638
H         -1.29931        2.60789       -0.41192
C          0.24503        1.14123        0.10123
O          0.35530       -0.07007        0.28917
N          1.09877        2.06084        0.62673
H          1.02298        3.02019        0.30110
C          2.32705        1.64205        1.29193
H          2.75669        2.49460        1.81781
H          2.09064        0.85150        2.00932
C          3.34270        1.15657        0.25180
O          4.22886        1.91993       -0.15883
N          3.16266       -0.11417       -0.17002
H          2.26552       -0.53058        0.08273
C          3.84545       -0.64050       -1.32682
H          3.77068       -1.73243       -1.31426
H          4.90932       -0.38745       -1.27845
C          3.25451       -0.10086       -2.64468
O          2.31121        0.68979       -2.65607
N          3.84619       -0.58075       -3.76365
H          4.70386       -1.11644       -3.68509
C          3.57419       -0.04597       -5.08817
H          3.26111       -0.84820       -5.76729
H          2.75802        0.67291       -5.00844
C          4.86245        0.56491       -5.63582
O          5.93045       -0.03955       -5.49123
N          4.75714        1.75802       -6.26520
H          3.95527        2.34667       -6.06117
C          5.94363        2.44538       -6.77225
H          6.60308        1.70204       -7.22850
H          5.64239        3.17518       -7.52341
C          6.66730        3.19379       -5.64638
O          6.74187        4.42938       -5.62077
N          7.17501        2.40017       -4.67652
H          7.03997        1.39324       -4.77422
C          7.61342        2.93220       -3.39535
H          8.38873        2.28418       -2.98100
H          8.01254        3.93526       -3.54591
C          6.42221        2.99068       -2.43549
O          5.79023        4.02046       -2.19831
O          6.11740        1.81497       -1.93600
H          5.33646        1.87730       -1.28386
