116
118
N         -1.03619       -6.05216        0.48482
H         -0.66613       -5.47020        1.31746
H         -2.05037       -5.99488        0.33843
H         -0.71996       -7.02701        0.60549
C         -0.34287       -5.53993       -0.73300
H          0.43736       -4.86414       -0.38722
C         -1.38621       -4.77273       -1.54257
C          0.32405       -6.74033       -1.46155
H         -0.44333       -7.26234       -2.04389
O         -2.54943       -5.16381       -1.57896
C          1.44843       -6.26026       -2.36962
H          1.08052       -5.54975       -3.11715
H          1.89489       -7.10926       -2.89058
H          2.22817       -5.77226       -1.77464
O          0.76422       -7.67141       -0.48668
H          1.37995       -7.20642        0.12306
N         -0.93208       -3.64802       -2.13615
H          0.04430       -3.37847       -2.09280
C         -1.80620       -2.63860       -2.69171
H         -2.66283       -3.12869       -3.16039
C         -0.96891       -1.81453       -3.67210
C         -2.29027       -1.63840       -1.59124
H         -1.41041       -1.05824       -1.28966
H         -2.98855       -0.93592       -2.05862
O          0.25152       -1.72947       -3.51180
C         -2.92861       -2.27999       -0.38624
C         -4.31854       -2.39818       -0.29370
H         -4.94333       -2.01337       -1.09518
C         -2.14234       -2.78325        0.65772
H         -1.06206       -2.71764        0.60718
C         -4.91098       -3.00490        0.81275
H         -5.99164       -3.08826        0.86729
C         -2.72875       -3.38820        1.76884
H         -2.09235       -3.76484        2.56315
C         -4.11782       -3.50073        1.84853
H         -4.58019       -3.96674        2.71295
N         -1.64739       -1.11591       -4.60619
H         -2.65401       -1.19396       -4.65201
C         -1.00525       -0.07729       -5.42443
H          0.01894       -0.41840       -5.59619
C         -0.97097        1.23514       -4.60689
C         -1.74890        0.10404       -6.73802
H         -1.23649        0.84184       -7.35822
H         -2.75963        0.48001       -6.55960
H         -1.79617       -0.84216       -7.28202
O         -1.74344        2.16399       -4.83375
N         -0.06569        1.24377       -3.60139
H          0.54939        0.44902       -3.43792
C          0.05513        2.36212       -2.68632
H          0.24905        3.27672       -3.25952
C          1.28158        2.07710       -1.81076
C         -1.22755        2.58209       -1.82194
H         -0.96625        2.62845       -0.76162
H         -1.86674        1.70618       -1.95212
O          1.87301        0.98891       -1.88643
C         -2.01641        3.83130       -2.20708
H         -2.19966        3.83204       -3.28712
H         -3.00088        3.84193       -1.72643
C         -1.31757        5.11277       -1.83555
O         -0.20547        5.20670       -1.33480
O         -2.05623        6.19283       -2.11817
N          1.63149        3.04517       -0.94416
H          1.07610        3.90322       -0.94204
C          2.82302        2.96619       -0.09175
H          3.60430        2.46714       -0.67985
C          2.57996        2.07109        1.14848
C          3.26855        4.36718        0.30489
H          4.15038        4.31594        0.94411
H          2.48241        4.88030        0.86531
H          3.50690        4.95062       -0.58691
O          2.89008        2.44346        2.29612
N          2.03259        0.88725        0.84950
H          2.00075        0.64088       -0.14517
C          1.55599       -0.09145        1.79788
H          1.75453        0.29601        2.79787
C          2.40688       -1.36789        1.64579
C          0.03849       -0.27939        1.63368
H         -0.15398       -0.65237        0.62188
H         -0.32548       -1.04742        2.32553
O          3.51012       -1.31683        1.08450
C         -0.77701        1.00408        1.86914
H         -0.40030        1.76548        1.17459
C         -2.25567        0.75639        1.55001
H         -2.67579       -0.02534        2.19149
H         -2.39342        0.43336        0.51466
H         -2.84256        1.66754        1.70076
C         -0.60358        1.54477        3.29417
H         -0.87735        0.78557        4.03709
H         -1.25004        2.41186        3.45714
H          0.42334        1.86856        3.48752
N          1.93235       -2.48637        2.21892
H          0.95236       -2.57767        2.46821
C          2.58993       -3.78039        2.05164
H          3.16743       -3.74447        1.12346
C          1.50413       -4.85820        1.84466
C          3.55422       -4.12572        3.20019
H          3.77766       -5.19153        3.10779
H          3.02713       -3.99930        4.15478
O          1.88859       -5.95399        1.39381
C          4.87214       -3.31081        3.16561
H          4.92879       -2.75694        2.22652
H          5.72568       -3.99748        3.16758
C          5.12394       -2.35705        4.33897
H          6.07905       -1.84351        4.19877
H          5.19010       -2.91907        5.27481
N          4.10599       -1.31541        4.57437
H          3.36503       -1.53018        5.22472
N          4.87146        0.21382        2.99369
H          4.79188        1.17540        2.68073
H          4.83398       -0.46046        2.22726
N          3.37389        0.89448        4.61348
H          2.97377        0.79607        5.53306
H          3.09281        1.66751        4.00138
C          4.11034       -0.07980        4.06242
O          0.30112       -4.50558        2.10161
H         -1.53764        6.97630       -1.86559
