116
118
N         -2.31516       -4.88598        0.87836
H         -1.36345       -4.55339        1.47688
H         -3.13263       -4.34526        1.17928
H         -2.50598       -5.88728        0.95690
C         -2.04297       -4.56046       -0.54405
H         -0.98668       -4.77077       -0.72824
C         -2.37838       -3.07558       -0.71514
C         -2.90642       -5.43033       -1.47052
H         -3.95421       -5.12289       -1.33731
O         -3.39658       -2.63226       -0.18983
C         -2.49666       -5.28743       -2.93143
H         -2.60670       -4.25643       -3.27922
H         -3.12267       -5.92066       -3.56672
H         -1.45492       -5.59419       -3.06485
O         -2.71125       -6.75965       -0.98575
H         -3.32006       -7.35310       -1.44405
N         -1.50257       -2.35102       -1.43894
H         -0.74290       -2.79705       -1.94412
C         -1.73501       -0.97007       -1.82997
H         -2.80769       -0.77224       -1.76327
C         -1.23113       -0.83580       -3.27150
C         -0.96317        0.04124       -0.94060
H          0.06973       -0.30069       -0.83760
H         -0.93504        0.99198       -1.47460
O         -0.33438       -1.57454       -3.68789
C         -1.60675        0.25203        0.40684
C         -2.35102        1.41460        0.64949
H         -2.44134        2.15810       -0.13704
C         -1.51350       -0.71120        1.41984
H         -0.93089       -1.60798        1.24901
C         -3.00295        1.60091        1.87378
H         -3.59325        2.49745        2.03938
C         -2.18172       -0.54518        2.63107
H         -2.12599       -1.32830        3.38016
C         -2.93090        0.61415        2.86129
H         -3.47939        0.73191        3.79202
N         -1.80466        0.14931       -3.99358
H         -2.37066        0.83178       -3.50092
C         -1.29112        0.56710       -5.29923
H         -0.70503       -0.27784       -5.67287
C         -0.34583        1.77652       -5.11672
C         -2.43165        0.89894       -6.25134
H         -2.03657        1.21798       -7.21705
H         -3.03565        1.72099       -5.85795
H         -3.06822        0.02289       -6.39213
O         -0.55136        2.85587       -5.66232
N          0.67769        1.54871       -4.25255
H          0.90320        0.59725       -3.97449
C          1.68911        2.53446       -3.90611
H          2.32777        2.74424       -4.77861
C          2.58208        1.82326       -2.87440
C          1.10689        3.88124       -3.44281
H          0.63367        4.35433       -4.30227
H          1.93421        4.53980       -3.15737
O          2.70489        0.59958       -2.89381
C          0.08571        3.77685       -2.28524
H          0.30059        2.93325       -1.62573
H          0.13245        4.69462       -1.68958
C         -1.33715        3.66325       -2.78507
O         -2.09391        2.72412       -2.59534
O         -1.70240        4.75266       -3.47075
N          3.22689        2.58121       -1.95408
H          3.02827        3.56543       -1.87509
C          3.97976        1.94228       -0.88463
H          4.90541        1.52375       -1.29767
C          3.13079        0.80968       -0.28808
C          4.30222        2.96090        0.20833
H          4.89081        2.49060        0.99933
H          3.37417        3.33832        0.64742
H          4.87913        3.79718       -0.19615
O          1.96890        1.02118        0.08606
N          3.72948       -0.37976       -0.16211
H          4.63359       -0.51340       -0.58939
C          2.98964       -1.55736        0.25042
H          2.05585       -1.57436       -0.32117
C          2.63494       -1.46138        1.75109
C          3.82754       -2.80731       -0.08543
H          4.22580       -2.65826       -1.09825
H          4.68721       -2.84512        0.59482
O          3.24099       -0.68340        2.49915
C          3.09873       -4.16344       -0.07081
H          2.74200       -4.36836        0.94506
C          1.88849       -4.18330       -1.01620
H          2.17827       -3.90391       -2.03553
H          1.09763       -3.49824       -0.69508
H          1.45459       -5.18734       -1.05035
C          4.09146       -5.27100       -0.44614
H          4.46307       -5.13451       -1.46811
H          3.61605       -6.25449       -0.39221
H          4.95436       -5.27790        0.22709
N          1.64584       -2.29895        2.09383
H          1.24523       -2.87774        1.36106
C          1.09734       -2.72753        3.38882
H          1.79153       -3.45003        3.84372
C         -0.20057       -3.52154        3.03453
C          0.79490       -1.62096        4.39896
H          0.03985       -2.03303        5.07166
H          0.30182       -0.81598        3.84955
O         -0.17530       -4.04585        1.84547
C          2.00338       -1.10060        5.19810
H          2.93324       -1.32716        4.67456
H          2.05414       -1.58580        6.17870
C          1.95293        0.41709        5.42150
H          2.85470        0.76475        5.93189
H          1.10985        0.68371        6.06354
N          1.84682        1.13117        4.14034
H          2.50015        0.76099        3.44277
N         -0.33273        1.95744        4.42205
H         -1.25492        1.95577        4.00499
H         -0.28692        1.78571        5.41198
N          0.59229        1.81828        2.32139
H          1.23083        1.39499        1.64150
H         -0.30657        2.09535        1.94854
C          0.70333        1.60532        3.63235
O         -1.12409       -3.59887        3.83922
H         -2.58554        4.58900       -3.84242
