21
conf-879
 N  -8.26876802  -3.64088165  -3.33962016
 H  -8.41401983  -3.36258908  -2.36894408
 H  -8.75262343  -2.97937803  -3.95295799
 H  -8.62130708  -4.58625197  -3.49593466
 C  -6.84405123  -3.59162776  -3.70902112
 H  -6.22420722  -3.93225405  -2.86957733
 C  -6.51657690  -2.14613264  -4.06970578
 C  -6.59686965  -4.53599870  -4.90014275
 H  -7.16468764  -4.15475017  -5.75156122
 O  -7.36049891  -1.42552886  -4.58704664
 C  -5.13674538  -4.70246118  -5.26111483
 H  -4.67432946  -3.75698645  -5.55335321
 H  -5.04403047  -5.40479602  -6.09201704
 H  -4.59035600  -5.10754545  -4.40389535
 O  -7.17370120  -5.80730699  -4.60984989
 H  -6.60073097  -6.24623057  -3.97731045
 N  -5.25779533  -1.73196438  -3.80270119
 H  -4.53582749  -2.37454549  -3.52124990
 C  -4.78224792  -0.43138947  -4.22103800
 H  -5.11782588  -0.24346790  -5.24556248
 C  -3.25774174  -0.51295302  -4.19845935
 C  -5.32916360   0.71756681  -3.35485369
 H  -5.06887858   1.65898946  -3.84580513
 H  -6.41501319   0.62585434  -3.38344401
 O  -2.67030019  -1.52208109  -3.81917519
 C  -4.83800933   0.71645880  -1.93423315
 C  -5.45978666  -0.07998618  -0.97745742
 H  -6.27507953  -0.73099609  -1.27767650
 C  -3.76276499   1.51589756  -1.53608755
 H  -3.23318905   2.12125714  -2.26330461
 C  -5.05005216  -0.05164504   0.35209029
 H  -5.51836823  -0.71933428   1.06634400
 C  -3.36593853   1.55444187  -0.20544509
 H  -2.51101075   2.16614573   0.07075549
 C  -4.00792261   0.77952098   0.74864307
 H  -3.66563264   0.77910828   1.77759160
 N  -2.60766386   0.59287973  -4.61289101
 H  -3.14224165   1.39918444  -4.88971241
 C  -1.15495784   0.72975041  -4.54574656
 H  -0.72668104  -0.18952366  -4.95473541
 C  -0.72084587   0.84039211  -3.08256803
 C  -0.72664480   1.93864015  -5.35559764
 H   0.35987950   2.04607933  -5.34163425
 H  -1.16589231   2.84726887  -4.94144877
 H  -1.05006083   1.82236882  -6.39225689
 O  -0.65928754   1.92767757  -2.49709471
 N  -0.44432003  -0.32679127  -2.46872763
 H  -0.76254844  -1.16987753  -2.92420594
 C  -0.18201831  -0.38503222  -1.04214901
 H  -0.74993923   0.44039095  -0.58214934
 C   1.31301572  -0.13718172  -0.78698273
 C  -0.61169042  -1.71433345  -0.43479641
 H  -0.39602352  -1.67487300   0.63112735
 H   0.00277161  -2.51722160  -0.83697577
 O   2.03769570  -0.94927690  -0.21814766
 C  -2.08746198  -2.01821854  -0.65382011
 H  -2.68506654  -1.10206813  -0.59740253
 H  -2.26441843  -2.44241904  -1.64822453
 C  -2.63440269  -2.97204605   0.36659272
 O  -2.01787941  -3.49150345   1.26163436
 O  -3.95498352  -3.19956616   0.16810239
 N   1.79106600   1.03576964  -1.27624245
 H   1.13089428   1.74366427  -1.56973700
 C   3.15355392   1.44249684  -0.99481481
 H   3.75641375   0.53257366  -0.96144784
 C   3.19394429   2.13143001   0.37511902
 C   3.66043966   2.38923319  -2.07052807
 H   4.70186704   2.65763678  -1.87766477
 H   3.06912623   3.30560736  -2.07818468
 H   3.59188821   1.91110934  -3.04894467
 O   2.52213739   3.13627334   0.60431872
 N   4.00553711   1.53392567   1.27850180
 H   4.63004310   0.79967378   0.98442348
 C   4.24397785   2.07755994   2.59666128
 H   3.73112139   3.03798949   2.63887662
 C   5.75110177   2.27848415   2.75539920
 C   3.72364278   1.15201477   3.69580253
 H   4.32243759   0.23884130   3.68544028
 H   3.89352733   1.63308721   4.66345024
 O   6.55312009   1.47617848   2.30302471
 C   2.24156297   0.78277575   3.58701914
 H   2.08753764   0.26442608   2.63626634
 C   1.87391368  -0.17444078   4.71571738
 H   2.01893895   0.31012601   5.68457771
 H   2.49638217  -1.07163370   4.68695213
 H   0.82906611  -0.48605119   4.64514783
 C   1.35134866   2.02038678   3.61557861
 H   1.49127877   2.56260607   4.55637149
 H   0.29893309   1.73602944   3.54311751
 H   1.57278970   2.69816923   2.79309257
 N   6.12654996   3.36758504   3.47024188
 H   5.49930656   3.90919541   4.05695103
 C   7.49530434   3.57460568   3.85640188
 H   7.91234496   2.65520911   4.28698794
 C   7.44566899   4.66496529   4.97044389
 C   8.41735048   4.00905820   2.71733553
 H   8.40134812   3.20219216   1.98298533
 H   9.42833758   4.07607840   3.12338410
 O   8.52282532   5.07647546   5.40573430
 C   8.01292971   5.32989308   2.07463240
 H   8.18348981   6.14256486   2.77898782
 H   6.94720775   5.33091468   1.83540171
 C   8.78780500   5.61482594   0.79506195
 H   8.47203769   6.56657068   0.35809785
 H   8.56339388   4.84671383   0.05162895
 N   10.25597172   5.61443033   0.94264748
 H   10.68152428   4.69876091   0.93307690
 N   10.26759578   7.61906183   2.13401712
 H   10.79912820   8.40963306   2.46062281
 H   9.35874698   7.82507310   1.75341247
 N   12.20812864   6.30664835   1.99705152
 H   12.72394745   5.66744577   1.40667444
 H   12.74232126   7.09729834   2.32630969
 C   10.90781596   6.52611789   1.67718521
 O   6.29086775   4.98618547   5.33058610
 H  -4.22848452  -3.81389786   0.86190552
