21
conf-472
 N  -6.31538307   0.46883009  -8.89640754
 H  -7.03358746   0.09050534  -8.26926889
 H  -6.27877066   1.48406999  -8.76313586
 H  -6.55635548   0.25896499  -9.86645727
 C  -4.99285116  -0.09555515  -8.54951044
 H  -5.02006816  -1.18601249  -8.64557423
 C  -4.69367212   0.30957413  -7.12180352
 C  -3.92752201   0.43402489  -9.50534846
 H  -3.90669209   1.52728151  -9.41086946
 O  -4.75458106   1.48597667  -6.77804521
 C  -2.55166935  -0.14950409  -9.26373728
 H  -2.18449295   0.09706418  -8.26547661
 H  -1.84599967   0.24168350  -9.99878761
 H  -2.59647106  -1.23652738  -9.36640461
 O  -4.38762962   0.07308107  -10.81360596
 H  -3.76267138   0.42334760  -11.45305941
 N  -4.40126145  -0.69736395  -6.26738762
 H  -4.23348893  -1.63690779  -6.59286463
 C  -4.26975636  -0.48508312  -4.84662344
 H  -4.04116674   0.57035966  -4.70021312
 C  -3.14780761  -1.39615430  -4.34280185
 C  -5.57803685  -0.81934698  -4.10408453
 H  -5.76496737  -1.89135563  -4.20625767
 H  -5.43494688  -0.61084519  -3.04077730
 O  -2.88356290  -2.45236191  -4.89149131
 C  -6.74556644  -0.04108713  -4.64348351
 C  -6.99001311   1.26631938  -4.22712328
 H  -6.33778850   1.70960139  -3.47911458
 C  -7.58508295  -0.59824210  -5.61178372
 H  -7.39427976  -1.60964088  -5.96092734
 C  -8.03634022   2.00862709  -4.77409415
 H  -8.20354824   3.02495291  -4.43867271
 C  -8.63785493   0.13399544  -6.14723054
 H  -9.27493362  -0.32087456  -6.89904563
 C  -8.86101226   1.44546801  -5.74490141
 H  -9.67620340   2.01771335  -6.17037197
 N  -2.52185259  -0.98370629  -3.21889350
 H  -2.76835162  -0.13607904  -2.73131482
 C  -1.50185877  -1.78763409  -2.58226860
 H  -1.83854193  -2.82661309  -2.55456002
 C  -1.36642959  -1.24068531  -1.16122301
 C  -0.17831296  -1.73018228  -3.34426824
 H   0.57508931  -2.33747698  -2.83874949
 H   0.18099060  -0.70005685  -3.40513037
 H  -0.33121565  -2.11079750  -4.35301672
 O  -1.75716518  -0.13015588  -0.85601990
 N  -0.78217472  -2.08753812  -0.26783981
 H  -0.27544322  -2.87677748  -0.62667550
 C  -0.37646605  -1.60196017   1.04508679
 H  -1.11649117  -0.86187751   1.35224081
 C   0.99028091  -0.94788989   0.92851171
 C  -0.31506506  -2.75846081   2.04165428
 H   0.49265580  -3.43255553   1.74913619
 H  -1.24929042  -3.31430756   1.97399264
 O   1.96729264  -1.59235236   0.56395425
 C  -0.08461175  -2.28160304   3.46801594
 H   0.83668321  -1.69982009   3.48790301
 H  -0.89144020  -1.64054657   3.82564537
 C   0.13662768  -3.39522414   4.44039317
 O   0.64157534  -4.45881677   4.17194954
 O  -0.23766639  -3.06543226   5.69149081
 N   1.05599408   0.37422432   1.23479061
 H   0.27903554   0.75753018   1.74378283
 C   2.35615133   0.97566985   1.49693017
 H   2.97272395   0.80266583   0.61630069
 C   3.01324477   0.25572986   2.70135030
 C   2.19074004   2.45629623   1.79451535
 H   3.16169360   2.94237084   1.90752910
 H   1.63948589   2.56728414   2.72925150
 H   1.64207476   2.94596550   0.99140846
 O   2.34585441  -0.06842341   3.71319254
 N   4.35231987   0.04435253   2.54498364
 H   4.85636359   0.65467318   1.92540433
 C   5.16368276  -0.56026907   3.57204818
 H   4.52444627  -0.75187028   4.43414130
 C   6.25716741   0.43793796   3.95438936
 C   5.81226681  -1.87618848   3.13420261
 H   6.62957076  -1.66274935   2.43927124
 H   6.26311825  -2.32999960   4.02292944
 O   6.55393119   1.38562683   3.25256672
 C   4.86236382  -2.88592362   2.49008010
 H   4.47282629  -2.44729214   1.57087781
 C   5.63611908  -4.14873121   2.12347552
 H   6.06395568  -4.60442658   3.01998805
 H   6.45062838  -3.92208958   1.43185995
 H   4.98241689  -4.88374000   1.64802093
 C   3.68814422  -3.21695502   3.40397792
 H   4.05302603  -3.68595612   4.32302597
 H   2.99488383  -3.90257085   2.91536185
 H   3.12604117  -2.32720540   3.68116255
 N   6.89677579   0.15285509   5.11329827
 H   6.86881725  -0.76281971   5.54269310
 C   8.10141701   0.84551840   5.48561838
 H   8.75357491   0.95848480   4.60541220
 C   8.79674470  -0.10127228   6.50456149
 C   7.81931035   2.23281869   6.06327528
 H   7.40331580   2.12835539   7.06891661
 H   7.04538979   2.67064575   5.43177390
 O   9.81833921   0.31271703   7.06392027
 C   9.07055050   3.10072762   6.07168814
 H   9.36489579   3.31171796   5.04069024
 H   9.89137193   2.54278264   6.52516643
 C   8.89362286   4.41135475   6.81176273
 H   9.84728958   4.94625100   6.82622190
 H   8.60852580   4.22200432   7.85423215
 N   7.87949233   5.24423258   6.13439860
 H   7.12936653   4.71548601   5.71153255
 N   8.17267148   7.01396030   7.63709656
 H   8.07316231   8.00451308   7.79026095
 H   9.05408423   6.61357917   7.91149692
 N   6.41291570   7.03977816   6.08606800
 H   6.15177609   6.77484569   5.14546588
 H   6.28171977   8.01792342   6.29296583
 C   7.50789239   6.43969251   6.61545823
 O   8.25801085  -1.22168319   6.63715269
 H  -0.03353750  -3.83412661   6.24260484
