75
77
N         -3.87074        2.41147        2.49722
H         -4.76758        1.93001        2.53354
H         -3.86616        3.10321        3.24273
C         -2.76140        1.47465        2.64409
H         -1.84601        2.07060        2.75024
C         -2.56047        0.68491        1.34455
C         -2.79426        0.50810        3.84103
H         -3.02032        1.08438        4.74728
H         -3.58188       -0.24234        3.71519
O         -2.21082       -0.50633        1.36889
C         -1.43364       -0.15282        4.05182
N         -1.44197       -1.40322        4.56284
H         -0.55963       -1.87642        4.70441
H         -2.28768       -1.95091        4.62082
O         -0.38699        0.46442        3.82625
N         -2.69959        1.40930        0.21818
H         -3.02366        2.36629        0.33049
C         -2.34985        0.94431       -1.12650
H         -2.66916       -0.10225       -1.19900
C         -0.80465        0.95096       -1.29612
C         -3.08099        1.77458       -2.20621
H         -2.53183        1.64035       -3.14337
H         -4.07425        1.33683       -2.34724
O         -0.21032        1.67573       -2.10273
C         -3.23559        3.25154       -1.88722
C         -4.46906        3.73660       -1.42898
H         -5.30981        3.05347       -1.33113
C         -2.16389        4.15018       -2.00430
H         -1.20106        3.77875       -2.33730
C         -4.63483        5.08426       -1.10203
H         -5.60021        5.43971       -0.75283
C         -2.32921        5.49674       -1.68051
H         -1.49030        6.18064       -1.77969
C         -3.56415        5.96913       -1.22875
H         -3.68975        7.01870       -0.97808
N         -0.18289        0.11584       -0.44355
H         -0.78122       -0.42742        0.18256
C          1.23772        0.17792       -0.16213
H          1.54626        1.23239       -0.16355
C          2.05287       -0.49715       -1.28215
C          1.48155       -0.43281        1.24253
H          1.72183       -1.50011        1.15722
H          0.56175       -0.35404        1.82662
O          1.49077       -0.87963       -2.32309
C          2.62545        0.24859        1.98932
N          2.40099        0.47444        3.29447
H          3.12652        0.94074        3.82324
H          1.47160        0.36523        3.70006
O          3.69178        0.53369        1.42478
N          3.37226       -0.59865       -1.05823
H          3.73802       -0.22072       -0.16742
C          4.26463       -1.11624       -2.07819
H          3.67448       -1.84259       -2.65089
C          5.41777       -1.92883       -1.49921
C          4.79721       -0.00652       -3.02556
H          4.05545        0.79881       -3.02133
H          5.71836        0.41321       -2.61040
O          6.42288       -2.17741       -2.12619
C          5.05772       -0.44775       -4.47428
H          5.38660        0.43278       -5.03945
H          5.87160       -1.17868       -4.50330
C          3.82136       -1.06297       -5.16562
H          3.94688       -1.08352       -6.25414
H          3.69002       -2.10861       -4.87540
N          2.56430       -0.40024       -4.80363
H          2.11603       -0.75108       -3.93710
N          2.81025        1.47720       -6.17094
H          2.41464        2.33772       -6.52234
H          3.30525        0.92824       -6.85907
N          1.24961        1.45079       -4.44077
H          0.98801        2.39300       -4.68555
H          0.96107        1.15208       -3.50186
C          2.20753        0.83558       -5.13826
O          5.18309       -2.36407       -0.24666
H          5.97007       -2.87415        0.02714
