21
conf-34
 N  -6.30773348  -2.27879790  -6.92461652
 H  -7.07821693  -1.79974923  -6.45525374
 H  -5.61685693  -1.56866357  -7.16476445
 H  -6.66191288  -2.71280612  -7.78134767
 C  -5.69961877  -3.27505304  -6.02920311
 H  -6.46260815  -4.00601460  -5.73925138
 C  -5.17136177  -2.57801461  -4.77754753
 C  -4.55462746  -4.03575285  -6.70981239
 H  -4.14084718  -4.76120533  -6.00971049
 H  -3.75237183  -3.33076246  -6.95650320
 O  -5.02248761  -1.36074385  -4.74157763
 C  -5.00263995  -4.75016628  -7.94401757
 C  -5.48760688  -6.00866690  -8.15882059
 H  -5.57734379  -6.81182610  -7.44156250
 N  -5.12655666  -4.11486264  -9.16187972
 H  -4.80941843  -3.18225991  -9.37645400
 C  -5.65699890  -5.00625630  -10.04044969
 H  -5.85744790  -4.75217164  -11.06727768
 N  -5.89604041  -6.16280884  -9.46867203
 N  -4.83108221  -3.38613914  -3.74487592
 H  -5.12886181  -4.34729797  -3.75830461
 C  -4.41024430  -2.82775115  -2.46662866
 H  -4.93803506  -1.87612064  -2.35507081
 C  -2.90219700  -2.57662089  -2.52962517
 C  -4.80514253  -3.75799860  -1.31462887
 H  -4.20771838  -4.66762978  -1.39336939
 O  -2.07502441  -3.30860262  -1.97428282
 C  -4.60973449  -3.10115555   0.04025274
 H  -3.56994858  -2.80668323   0.19060822
 H  -4.89746885  -3.79196100   0.83434485
 H  -5.23486542  -2.20826165   0.10594017
 O  -6.15769078  -4.17499580  -1.45365026
 H  -6.71176989  -3.41131784  -1.27389180
 N  -2.52145759  -1.51032344  -3.26011733
 H  -3.21818402  -0.97890939  -3.76704379
 C  -1.11951739  -1.20614703  -3.46588959
 H  -0.58395629  -2.16038342  -3.46655030
 C  -0.60927601  -0.36912279  -2.28936247
 C  -0.88241524  -0.48558999  -4.78138547
 H   0.19399969  -0.30727190  -4.87813775
 H  -1.35386115   0.49865487  -4.73763490
 O  -0.35342917   0.83237810  -2.38368160
 C  -1.38191195  -1.23883825  -6.01340534
 H  -2.47643648  -1.22269238  -5.99478072
 C  -0.90804584  -0.51748119  -7.27072868
 H   0.18060194  -0.57408960  -7.33522988
 H  -1.19754794   0.53641609  -7.26757641
 H  -1.32458271  -0.97359184  -8.17044012
 C  -0.91504551  -2.69012861  -6.02850454
 H   0.17026752  -2.73913059  -5.89849709
 H  -1.15770302  -3.15657636  -6.98853218
 H  -1.38192091  -3.28608193  -5.23943305
 N  -0.47518283  -1.04288309  -1.12309708
 H  -0.77151840  -2.01252963  -1.08350130
 C  -0.14873098  -0.35220162   0.11110721
 H  -0.66451436   0.61413529   0.08825563
 C   1.35946961  -0.09779546   0.16796128
 C  -0.59032249  -1.17288452   1.31263615
 H  -0.47350899  -0.59758054   2.23374527
 H   0.00760342  -2.08116624   1.38577575
 H  -1.64265679  -1.44784197   1.19712902
 O   2.15504425  -0.97521287   0.50766972
 N   1.75485299   1.13828725  -0.18534210
 H   1.07198793   1.76262688  -0.58723186
 C   3.15370371   1.53308395  -0.20185739
 H   3.71935093   0.67054348  -0.56333253
 C   3.61398027   1.88355841   1.22721525
 C   3.36174552   2.73155640  -1.13032967
 H   2.79287890   3.57242829  -0.73684611
 H   4.41409157   3.01493280  -1.07689030
 O   3.87769689   3.02851798   1.57636324
 C   2.95533183   2.43689662  -2.54104074
 C   3.74307828   1.63062179  -3.36203275
 H   4.67465247   1.23434495  -2.97416614
 C   1.75541199   2.92382138  -3.05384660
 H   1.10626465   3.52317531  -2.42518743
 C   3.35443993   1.32528148  -4.66725891
 H   3.96446304   0.70440101  -5.30849620
 C   1.34612323   2.62564220  -4.34922539
 H   0.39087973   2.98615079  -4.71280345
 O   1.78204382   1.49699160  -6.43608394
 H   0.95699964   1.94945724  -6.62035095
 C   2.15451747   1.82604920  -5.15099248
 N   3.69733907   0.83618538   2.08600100
 H   3.36992692  -0.07199965   1.77953659
 C   3.95977460   1.07825404   3.49098977
 H   3.17819635   1.73433709   3.88826869
 C   5.31593784   1.77128122   3.64783432
 C   3.97366984  -0.23164035   4.27964860
 H   4.32120226  -0.04467891   5.29829581
 H   4.67083671  -0.93437907   3.82555404
 O   6.31486912   1.38718824   3.06836203
 C   2.60988813  -0.85544747   4.40684627
 O   1.56013303  -0.27786027   4.25764571
 O   2.68311941  -2.15344137   4.75454987
 N   5.32769599   2.82275383   4.49988372
 H   4.59874722   3.05043023   5.16297736
 C   6.52206897   3.57659823   4.74415951
 H   7.36254561   2.89384281   4.93676975
 C   6.22128741   4.41613205   6.01788461
 C   6.88485885   4.48226958   3.56179995
 H   6.17778867   5.31662247   3.52159000
 H   6.73350105   3.89723176   2.65276340
 O   7.13028156   5.14349410   6.43860696
 C   8.32386949   4.97760874   3.62031630
 H   8.50780952   5.49354875   4.56530875
 H   8.97425317   4.09678205   3.61431851
 C   8.65517562   5.88598195   2.44992878
 H   8.48996344   5.35191673   1.50946923
 H   7.96509732   6.73610430   2.45627517
 C   10.07223613   6.42695065   2.47739734
 H   10.24812704   6.90613383   3.44429058
 H   10.19614035   7.19573037   1.71274393
 N   11.09257439   5.36609187   2.27531109
 H   12.04299393   5.73569624   2.30802555
 H   10.96856970   4.90153950   1.37598370
 H   11.02239236   4.64903937   2.99591233
 O   5.08013100   4.26133016   6.49888427
 H   1.77037469  -2.45903805   4.84330785
