21
conf-879
 N  -3.17540224  -1.87181286  -9.21653163
 H  -2.71598380  -0.96371709  -9.28843259
 H  -2.51571132  -2.50748461  -8.76638317
 H  -3.39682386  -2.22232925  -10.14941304
 C  -4.38774298  -1.77366163  -8.38661691
 H  -5.05764486  -1.02349913  -8.81415002
 C  -3.98411763  -1.33429643  -6.97983648
 C  -5.12871572  -3.10619321  -8.33802401
 H  -5.96688031  -3.03718687  -7.64534452
 H  -4.45221707  -3.86626297  -7.94721725
 O  -2.81445250  -1.34397533  -6.62802879
 C  -5.62093126  -3.54092282  -9.68672308
 C  -6.32007253  -2.90568787  -10.66986597
 H  -6.69596390  -1.89303596  -10.67679901
 N  -5.38768910  -4.80806438  -10.18180257
 H  -4.90447758  -5.54963285  -9.70822508
 C  -5.94474021  -4.87385847  -11.41924673
 H  -5.90141508  -5.76482372  -12.02126676
 N  -6.51774991  -3.74011206  -11.75283386
 N  -4.99879791  -0.96961072  -6.15944851
 H  -5.90813020  -0.80600204  -6.56135736
 C  -4.76007445  -0.34685124  -4.86627453
 H  -4.24980666   0.61432708  -5.00610396
 C  -3.89147275  -1.25310900  -3.99679883
 C  -6.11844149  -0.09658342  -4.19589378
 H  -6.57085236  -1.07370466  -3.99032191
 O  -4.20567073  -2.40642579  -3.73195060
 C  -6.00663690   0.71185473  -2.91982376
 H  -5.40302380   0.18579949  -2.17711079
 H  -6.99723881   0.88912033  -2.49893351
 H  -5.54100909   1.67507374  -3.14142799
 O  -6.91137541   0.61252358  -5.15168042
 H  -7.77076543   0.77731266  -4.75548027
 N  -2.75441074  -0.67500772  -3.53922153
 H  -2.57900776   0.30246322  -3.69125356
 C  -1.85790801  -1.34552948  -2.63012159
 H  -2.40135215  -2.19133599  -2.20628840
 C  -1.48124749  -0.36408381  -1.52346217
 C  -0.58132718  -1.85446980  -3.30466030
 H   0.08248892  -2.23801659  -2.52881239
 H  -0.06482235  -1.00359643  -3.75588758
 O  -1.47243370   0.84599773  -1.69178660
 C  -0.78166590  -2.92740936  -4.37683619
 H  -1.48615991  -2.54125296  -5.10793861
 C   0.55443910  -3.16699950  -5.07458043
 H   1.28913508  -3.55799223  -4.36685259
 H   0.94070859  -2.22648118  -5.47587256
 H   0.45626822  -3.87802809  -5.89745380
 C  -1.34283726  -4.22460266  -3.79976531
 H  -0.65987120  -4.63134929  -3.04797915
 H  -1.45853993  -4.97211376  -4.58859717
 H  -2.31946050  -4.07221633  -3.33761568
 N  -1.13454549  -0.94360292  -0.33555582
 H  -0.88077194  -1.91488234  -0.38090070
 C  -0.36295481  -0.18450271   0.63626964
 H  -0.78244651   0.82206659   0.65662563
 C   1.10093962  -0.11958857   0.17717313
 C  -0.46596528  -0.84222515   2.00517937
 H   0.08784798  -0.27356582   2.75593517
 H  -0.05465783  -1.85432581   1.96978003
 H  -1.51097555  -0.90025859   2.31152454
 O   1.60278508  -0.99252558  -0.51532004
 N   1.78890386   0.96784346   0.61220583
 H   1.42270502   1.55608625   1.34406257
 C   3.21502122   1.08360958   0.41696132
 H   3.60960888   0.09368569   0.17992375
 C   3.79372803   1.62817344   1.72118147
 C   3.55913099   2.04774957  -0.73454566
 H   3.16343168   3.03776178  -0.47476752
 H   4.64656786   2.14324275  -0.78450084
 O   3.11323965   2.28800198   2.48861647
 C   3.02545658   1.60372748  -2.06766063
 C   1.69540891   1.84658288  -2.42664817
 H   1.03582197   2.33944293  -1.71905887
 C   3.83574247   0.93666844  -2.98788123
 H   4.87161802   0.73812885  -2.74403752
 C   1.19456377   1.45458553  -3.66861427
 H   0.16429333   1.65564477  -3.93640379
 C   3.34352649   0.52415984  -4.22575567
 H   3.99447949   0.00713920  -4.92119305
 O   1.48162796   0.38673019  -5.76280560
 H   2.19577123   0.03643439  -6.30063872
 C   2.02045110   0.78953035  -4.56177751
 N   5.10716456   1.36814851   1.95084671
 H   5.68596631   1.04017953   1.19207526
 C   5.79862238   2.15807563   2.94592571
 H   5.11046532   2.28838720   3.78226989
 C   6.11264952   3.56162507   2.39303008
 C   7.05409817   1.45281420   3.46926506
 H   6.74617259   0.53400477   3.97261690
 H   7.55471481   2.08212510   4.21178323
 O   6.10554052   3.83666548   1.20445852
 C   8.04419831   1.06194762   2.40642036
 O   7.79115673   0.88391754   1.23554233
 O   9.27595025   0.89108032   2.92228511
 N   6.38184067   4.47760813   3.36001237
 H   6.74262306   4.19839964   4.26551745
 C   6.87392855   5.78488093   3.03797823
 H   7.33620953   5.78187256   2.04325291
 C   7.95476532   6.10376149   4.11805505
 C   5.80983256   6.88209755   3.10082729
 H   6.31945809   7.84104185   2.96489754
 H   5.36865528   6.89421662   4.10423499
 O   8.59717950   7.14332908   3.96526384
 C   4.70095315   6.71294290   2.06590467
 H   4.24991283   5.72239651   2.17201687
 H   3.90857431   7.43383267   2.28792980
 C   5.15237420   6.91193395   0.62883648
 H   5.55169753   7.92151914   0.50331722
 H   5.95534863   6.21419603   0.37847020
 C   4.01290575   6.69454496  -0.34223958
 H   3.17719576   7.34327481  -0.07310258
 H   3.66572536   5.65931152  -0.25104116
 N   4.40286895   6.94315009  -1.75268914
 H   3.64644530   6.73918338  -2.40633338
 H   5.19994442   6.36498072  -2.01444032
 H   4.67542092   7.91570495  -1.89229675
 O   8.04310567   5.24941316   5.03094397
 H   9.84790236   0.62009437   2.19113989
