21
conf-796
 N  -6.67237420  -3.77993452  -6.90495355
 H  -7.57836087  -3.78409714  -6.43092257
 H  -6.49863982  -2.83176784  -7.24670222
 H  -6.72420190  -4.41066094  -7.70383777
 C  -5.57386535  -4.15937743  -5.98496514
 H  -5.82561944  -5.09952811  -5.48306312
 C  -5.39678047  -3.04564731  -4.96176508
 C  -4.27326005  -4.31888321  -6.77438099
 H  -4.02415024  -3.34511992  -7.20111974
 H  -4.45338592  -5.00298559  -7.60455011
 O  -5.20880477  -1.88628335  -5.33082624
 C  -3.13430078  -4.85389486  -5.96725251
 C  -2.50574094  -6.06054295  -5.98848289
 H  -2.70942795  -6.89989101  -6.63438319
 N  -2.52333628  -4.14952546  -4.96207995
 H  -2.71499219  -3.18817208  -4.68226603
 C  -1.54742182  -4.93553091  -4.45354874
 H  -0.90729794  -4.59905638  -3.65350195
 N  -1.50786778  -6.10756903  -5.03840241
 N  -5.46017710  -3.39053905  -3.65921718
 H  -5.42294579  -4.35716263  -3.37410149
 C  -5.10461181  -2.42105179  -2.63439570
 H  -5.54689919  -1.47047870  -2.92611222
 C  -3.58600167  -2.27064725  -2.56640754
 C  -5.63691592  -2.89044655  -1.28185040
 H  -5.21383135  -2.24276893  -0.50773318
 O  -2.88097625  -2.98916516  -1.83412362
 C  -7.14679408  -2.85314877  -1.21160807
 H  -7.51542920  -1.83351649  -1.35488455
 H  -7.47827315  -3.21369315  -0.23657313
 H  -7.58545727  -3.49084307  -1.97933178
 O  -5.22313923  -4.23004433  -1.05805753
 H  -4.26488154  -4.18399830  -0.95323006
 N  -3.02977015  -1.41180896  -3.42558178
 H  -3.60356958  -0.78983538  -3.97957543
 C  -1.59271832  -1.20582317  -3.38495936
 H  -1.14414488  -2.19513157  -3.22670111
 C  -1.24003497  -0.34033666  -2.18619262
 C  -1.09234909  -0.62477703  -4.68735514
 H  -1.57287272   0.34620644  -4.82935926
 H  -1.42398456  -1.28568489  -5.49580055
 O  -1.18326611   0.87986552  -2.23719647
 C   0.42814070  -0.46138196  -4.77742281
 H   0.72619262   0.24642624  -3.98621908
 C   1.16668259  -1.78034210  -4.56597133
 H   0.87985123  -2.50097378  -5.34013639
 H   0.95688644  -2.22083003  -3.58932941
 H   2.24799239  -1.62966162  -4.63280550
 C   0.77136626   0.14052939  -6.13793724
 H   0.54549171  -0.57788660  -6.92784325
 H   1.82679595   0.41080278  -6.20989068
 H   0.17473151   1.03306409  -6.31885803
 N  -1.04373967  -1.02199300  -1.02946609
 H  -0.87266665  -2.01020682  -1.10753965
 C  -0.36630040  -0.33760760   0.05320056
 H  -0.95534391   0.55673098   0.27929014
 C   1.02927180   0.11202794  -0.40774077
 C  -0.29077685  -1.24971490   1.27059845
 H   0.22707819  -0.76333852   2.09994983
 H   0.25169160  -2.16253939   1.01272569
 H  -1.29701892  -1.51997652   1.59475617
 O   1.67947819  -0.48770832  -1.26086461
 N   1.47414435   1.23539320   0.22666853
 H   1.07223202   1.49166367   1.11516692
 C   2.83623562   1.68676533   0.08439321
 H   3.38605550   0.94395470  -0.49846911
 C   3.40959119   1.79293935   1.50158899
 C   2.92432365   3.05119696  -0.60917378
 H   2.33350526   3.76205635  -0.02386277
 H   3.96363895   3.39296890  -0.56347526
 O   2.68281212   1.88908804   2.47566818
 C   2.47356448   3.05562081  -2.04719524
 C   3.40359420   3.18596228  -3.07904813
 H   4.45719553   3.24839128  -2.84308070
 C   1.12347293   2.96210428  -2.39280466
 H   0.37509097   2.83937871  -1.62127416
 C   3.00481082   3.24755500  -4.41249737
 H   3.72697280   3.35707378  -5.21086151
 C   0.70585346   3.03567675  -3.72336925
 H  -0.35026190   2.93548172  -3.96109107
 O   1.32001202   3.29212002  -6.05659195
 H   0.36442801   3.30629660  -6.13275277
 C   1.65539590   3.19439440  -4.73182747
 N   4.75631206   1.86577129   1.58227767
 H   5.33843963   1.65625342   0.78811847
 C   5.40705661   1.77971444   2.86701706
 H   5.03464362   2.58957094   3.49905321
 C   6.90784802   1.97396095   2.63879627
 C   5.09978747   0.47377597   3.60975892
 H   4.03217650   0.45830476   3.82998095
 H   5.64229659   0.43564897   4.55960998
 O   7.40766009   2.02505150   1.53239894
 C   5.40476380  -0.76560993   2.81326636
 O   5.60505834  -0.82851056   1.62384138
 O   5.40614425  -1.85867473   3.60818609
 N   7.63529109   2.07328647   3.77108277
 H   7.30292444   1.81923949   4.69250487
 C   9.06938675   2.10524356   3.73418751
 H   9.43252760   1.39113030   2.98314320
 C   9.50583623   1.63394354   5.15219102
 C   9.60226628   3.49287722   3.37794165
 H   9.18671976   4.22541828   4.08008883
 H   9.18321103   3.72906912   2.39679680
 O   10.71851714   1.47800086   5.34646736
 C   11.12464713   3.61736126   3.32665166
 H   11.35677586   4.61751126   2.94816870
 H   11.56076423   3.55464429   4.32686543
 C   11.75759863   2.55304301   2.44569634
 H   11.57259014   1.56946822   2.89048544
 H   11.28280918   2.55463458   1.45892869
 C   13.25719808   2.72138620   2.29245257
 H   13.68444324   1.83103699   1.82717430
 H   13.70102429   2.80597664   3.28877105
 N   13.63079442   3.91782999   1.49508100
 H   14.64198775   4.01504148   1.39990987
 H   13.28576558   4.77282109   1.92904534
 H   13.23146533   3.87563549   0.55772618
 O   8.56835887   1.44329614   5.95705067
 H   5.58772720  -2.60967176   3.02861364
