21
conf-684
 N  -7.69668184  -5.14472596  -4.65273297
 H  -8.23444598  -5.24310786  -3.78924057
 H  -8.07606935  -4.34498068  -5.16681741
 H  -7.82446151  -5.98459676  -5.21482413
 C  -6.26630339  -4.89472636  -4.37949250
 H  -5.90683474  -5.63143725  -3.65833205
 C  -6.10356467  -3.48876054  -3.80029771
 C  -5.46319240  -5.00642199  -5.68548892
 H  -5.84566017  -4.24941896  -6.37012351
 H  -5.65640217  -5.98753929  -6.12452010
 O  -6.74104324  -2.54277863  -4.24667412
 C  -3.99735379  -4.78589681  -5.51077918
 C  -3.19424172  -3.72142645  -5.80074797
 H  -3.50459143  -2.80256821  -6.29088749
 N  -3.16016654  -5.68029523  -4.88168058
 H  -3.42194144  -6.59384204  -4.54611031
 C  -1.91780183  -5.13737805  -4.82935687
 H  -1.07687260  -5.65402989  -4.39109131
 N  -1.89690334  -3.94118224  -5.37294989
 N  -5.17906191  -3.36367349  -2.81623180
 H  -4.66574765  -4.16159737  -2.48101821
 C  -4.74886118  -2.07183698  -2.32318134
 H  -5.18470500  -1.30996443  -2.96220213
 C  -3.23185026  -2.02310686  -2.39964780
 C  -5.21336149  -1.84608917  -0.87347522
 H  -4.71591772  -0.94305862  -0.49024555
 O  -2.55539320  -2.93318804  -1.90858980
 C  -6.71631577  -1.66449236  -0.80976604
 H  -7.02201502  -0.77989808  -1.37766282
 H  -7.03036943  -1.55457574   0.22799597
 H  -7.21917344  -2.53328032  -1.23456478
 O  -4.90240721  -2.96323074  -0.04983818
 H  -3.95053971  -3.10915576  -0.10419107
 N  -2.67344219  -0.95906338  -3.01035795
 H  -3.24691944  -0.16253914  -3.23000351
 C  -1.22438366  -0.76786716  -3.05979279
 H  -0.79581647  -1.73799108  -3.30929396
 C  -0.71274511  -0.35663061  -1.68105915
 C  -0.86652116   0.28695108  -4.09209078
 H   0.17240163   0.58966301  -3.94749791
 H  -1.47263030   1.17045336  -3.88482812
 O  -0.56445081   0.82423283  -1.35461837
 C  -1.04405401  -0.14813026  -5.54470357
 H  -2.06720040  -0.52716302  -5.67535962
 C  -0.85578925   1.06311385  -6.45653902
 H   0.16733004   1.44029118  -6.37647433
 H  -1.53735646   1.87382177  -6.19069115
 H  -1.03756092   0.80101664  -7.50128625
 C  -0.06557368  -1.25635201  -5.92414726
 H   0.95413555  -0.97981861  -5.64015063
 H  -0.07568079  -1.42891722  -7.00595898
 H  -0.33224695  -2.19494282  -5.44027558
 N  -0.43646283  -1.37204782  -0.83562183
 H  -0.78859561  -2.29038486  -1.07601477
 C  -0.10442649  -1.11169702   0.55656656
 H  -0.60551940  -0.17426390   0.83078424
 C   1.41358765  -0.89657353   0.68940618
 C  -0.58099625  -2.25550982   1.43600926
 H  -0.39038721  -2.03442166   2.48662653
 H  -0.06009513  -3.17899603   1.17856286
 H  -1.65473308  -2.39588493   1.29084489
 O   2.13214042  -1.61614301   1.36932444
 N   1.90726726   0.13464148  -0.04936876
 H   1.25871976   0.79569837  -0.45989137
 C   3.28885180   0.55275436   0.11297996
 H   3.84579709  -0.32556213   0.44935508
 C   3.31319091   1.66255214   1.16095623
 C   3.84965273   1.06928666  -1.21474187
 H   3.60922410   0.33259557  -1.98261326
 H   3.32715055   1.99440971  -1.46573143
 O   2.84971349   2.77059776   0.91131362
 C   5.33897836   1.28622245  -1.17119707
 C   5.88790188   2.42669997  -0.57710579
 H   5.22663591   3.17622496  -0.15455286
 C   6.21843027   0.33686442  -1.69648458
 H   5.81894892  -0.55257053  -2.16545288
 C   7.26711477   2.60520098  -0.51582884
 H   7.69085509   3.48463577  -0.04841468
 C   7.59965792   0.50963850  -1.63963899
 H   8.25579537  -0.24536506  -2.05927666
 O   9.46895110   1.88968701  -0.95373688
 H   9.94476793   1.15826889  -1.35528529
 C   8.12653208   1.65218922  -1.04569584
 N   3.79653863   1.32594855   2.37128923
 H   4.31289767   0.46767906   2.50099215
 C   3.82452892   2.31218497   3.42821479
 H   2.91761031   2.90906106   3.32227677
 C   5.03572956   3.23415970   3.26909753
 C   3.85586994   1.62993240   4.80024891
 H   2.97496545   0.99031189   4.87970093
 H   3.83852259   2.37359761   5.59800492
 O   6.15951004   2.80095457   3.05491274
 C   5.07018392   0.74867679   4.94177938
 O   5.32388547  -0.18091906   4.20907168
 O   5.83778179   1.08797939   5.99193481
 N   4.77984146   4.55615129   3.42224530
 H   3.92634970   4.91370223   3.83251404
 C   5.84462857   5.51492528   3.53438550
 H   6.64677583   5.10897626   4.16899412
 C   5.20982671   6.74925623   4.23879497
 C   6.43890626   5.89267206   2.17679860
 H   5.72119112   6.50303284   1.62205817
 H   6.56415724   4.96170371   1.61461807
 O   5.94239012   7.72930759   4.42406478
 C   7.78329082   6.59730486   2.29741079
 H   7.67850105   7.49381099   2.91162702
 H   8.46064131   5.92733517   2.83711201
 C   8.36721142   6.95496713   0.94226773
 H   8.54665575   6.04019748   0.36413195
 H   7.63261422   7.54323851   0.38354804
 C   9.64931578   7.76304010   1.02583838
 H   9.46133149   8.65152004   1.63530976
 H   9.94117456   8.11224241   0.03404420
 N   10.77385793   7.00129037   1.62735133
 H   11.61750745   7.56846382   1.71516856
 H   11.00671935   6.18030443   1.06921062
 H   10.53174279   6.67209274   2.56078612
 O   4.01325425   6.61739361   4.57080269
 H   6.58901078   0.47900743   5.99700862
