21
conf-472
 N  -6.51525342  -1.43767272  -7.04963220
 H  -7.45299799  -1.27037040  -6.67928038
 H  -5.91081010  -0.67561129  -6.72693932
 H  -6.53995844  -1.46016474  -8.07050528
 C  -5.93671989  -2.67453848  -6.49521461
 H  -6.70610923  -3.44616697  -6.43309877
 C  -5.40613114  -2.34979065  -5.10165067
 C  -4.78574080  -3.18139869  -7.36911282
 H  -4.34979783  -4.07038767  -6.91177732
 H  -4.00249736  -2.42172470  -7.40298680
 O  -5.07155804  -1.20143268  -4.81759834
 C  -5.20987032  -3.47777835  -8.77821415
 C  -4.80315009  -2.97217896  -9.97735329
 H  -4.04070129  -2.22695495  -10.15521745
 N  -6.20730735  -4.37496808  -9.09597208
 H  -6.73448604  -4.93260912  -8.44394412
 C  -6.35033541  -4.37245463  -10.44729332
 H  -7.06715036  -4.99868267  -10.95097813
 N  -5.52050204  -3.53031052  -11.01796203
 N  -5.26366535  -3.39010589  -4.24719723
 H  -5.75672012  -4.24115343  -4.47086263
 C  -5.01048782  -3.15040296  -2.82827391
 H  -5.45218835  -2.17747393  -2.58900818
 C  -3.49844229  -3.09900124  -2.58832612
 C  -5.69258826  -4.22569834  -1.98065125
 H  -5.15371194  -5.16997199  -2.12488084
 O  -2.89381808  -3.92896099  -1.90762367
 C  -5.73921480  -3.85417458  -0.51030033
 H  -4.73523248  -3.75030035  -0.10413486
 H  -6.27109191  -4.62144397   0.05559046
 H  -6.26974212  -2.90604957  -0.40081267
 O  -7.02774097  -4.34772092  -2.48023606
 H  -7.47860637  -5.01113850  -1.95361631
 N  -2.85436526  -2.08451089  -3.20591873
 H  -3.39133184  -1.38479889  -3.70190110
 C  -1.43056507  -1.90261186  -3.00780840
 H  -1.01996731  -2.90796704  -2.89058834
 C  -1.18648344  -1.13068526  -1.71438932
 C  -0.77341081  -1.21824876  -4.19019198
 H  -1.15380738  -0.19480966  -4.25562025
 H  -1.07984637  -1.74807971  -5.09526792
 O  -0.96105270   0.07059782  -1.68176673
 C   0.76000366  -1.17930288  -4.13462296
 H   1.03948615  -0.58769646  -3.24725332
 C   1.38091019  -2.56733969  -4.00826146
 H   1.10834218  -3.18912044  -4.86664273
 H   1.06770881  -3.07951438  -3.09790907
 H   2.47173903  -2.49139891  -3.98171476
 C   1.26868576  -0.47547799  -5.39033063
 H   1.04851277  -1.08459010  -6.26868309
 H   2.34572344  -0.30291169  -5.35343499
 H   0.76940760   0.48417342  -5.51705913
 N  -1.26959034  -1.86832538  -0.58040065
 H  -1.38433126  -2.86579886  -0.67083843
 C  -0.63966758  -1.35138621   0.61597261
 H  -1.12018179  -0.39420094   0.84092273
 C   0.85207385  -1.07994998   0.34296033
 C  -0.83332553  -2.32639335   1.76997880
 H  -0.37404503  -1.94890730   2.68601359
 H  -0.37075099  -3.28549617   1.52584732
 H  -1.89764568  -2.48293981   1.95202502
 O   1.50598788  -1.69771343  -0.49655635
 N   1.36833026  -0.08929988   1.12841816
 H   0.89432173   0.16394413   1.98226221
 C   2.78715728   0.18018847   1.17468797
 H   3.29705147  -0.57233179   0.57366275
 C   3.20424412   0.10163353   2.64189266
 C   3.11591476   1.58333250   0.63801956
 H   2.53059375   2.29918290   1.22254544
 H   4.17104788   1.79518333   0.84223329
 O   2.41870988   0.32857027   3.54359924
 C   2.84600626   1.77105824  -0.83124081
 C   3.89790747   1.87481166  -1.74248536
 H   4.91845156   1.77902873  -1.39706033
 C   1.54319828   1.88522204  -1.32303667
 H   0.70157195   1.79486624  -0.64907413
 C   3.66430473   2.11085955  -3.09569950
 H   4.48171235   2.20030863  -3.79898823
 C   1.29295875   2.13241783  -2.67379080
 H   0.26639939   2.18539075  -3.02721482
 O   2.19723638   2.52533178  -4.89023325
 H   1.26518926   2.67036649  -5.06177019
 C   2.36428194   2.26209729  -3.55626571
 N   4.52197136  -0.19895859   2.86404202
 H   5.13410466  -0.09299595   2.07003190
 C   5.12763664   0.21304574   4.12201163
 H   4.33570021   0.21766248   4.86558659
 C   5.69129679   1.63265102   3.95298932
 C   6.22979972  -0.77343657   4.55036679
 H   6.95422766  -0.90106838   3.74559828
 H   5.76019974  -1.73451133   4.76543169
 O   6.10212244   2.04289985   2.88020083
 C   6.97629400  -0.29556468   5.76344508
 O   8.16860809  -0.13146249   5.82287038
 O   6.14168285  -0.00732379   6.78765435
 N   5.72588533   2.37999405   5.08504174
 H   5.57718484   1.96766731   5.99580686
 C   6.57743990   3.52971851   5.16930714
 H   7.48436933   3.37719465   4.57275574
 C   6.98181006   3.68124108   6.66938881
 C   5.90959179   4.82434445   4.72090845
 H   5.56809125   4.68261993   3.69532169
 H   6.67997962   5.60105745   4.71369810
 O   7.69498586   4.64589263   6.94677682
 C   4.75345617   5.24623116   5.62393384
 H   3.99572110   4.45902952   5.63018792
 H   5.12027774   5.34207354   6.64965792
 C   4.12867918   6.54786959   5.15493422
 H   4.87155323   7.34903600   5.22294342
 H   3.85783765   6.45654653   4.09893168
 C   2.88936565   6.95220464   5.93199358
 H   2.11232200   6.19711272   5.78903756
 H   2.49623288   7.89315774   5.54328958
 N   3.16287467   7.09119943   7.38619899
 H   2.42931747   7.60831247   7.87078977
 H   4.04773657   7.57275314   7.53517821
 H   3.24052858   6.17831592   7.83162398
 O   6.56013573   2.78977119   7.44078447
 H   6.66284783   0.51400749   7.42052454
