21
conf-772
 N  -7.43023435  -5.29160739  -5.83557329
 H  -8.14900244  -5.08459898  -5.13835513
 H  -7.38306148  -4.49311596  -6.47359440
 H  -7.71384259  -6.11809587  -6.36149938
 C  -6.10417393  -5.46966216  -5.19934417
 H  -6.16909227  -6.23393599  -4.41993232
 C  -5.70252592  -4.13731700  -4.56987735
 C  -5.06061292  -5.88928750  -6.24061281
 H  -5.07862715  -5.15361507  -7.04957531
 H  -5.36527727  -6.84396864  -6.66796606
 O  -5.53849020  -3.12916374  -5.28548711
 C  -3.67847075  -6.01593819  -5.68190256
 C  -2.90776025  -7.09198010  -5.36182074
 H  -3.14128436  -8.13673382  -5.49729710
 N  -2.94382511  -4.92086554  -5.31027664
 H  -3.29086655  -3.97058314  -5.35300644
 C  -1.77882805  -5.37298396  -4.78234339
 H  -1.02678724  -4.70684084  -4.40387685
 N  -1.71509038  -6.68462324  -4.79855704
 N  -5.54941478  -4.16156548  -3.22713986
 H  -5.68506912  -5.01047278  -2.71368687
 C  -5.17998576  -2.95629627  -2.52009453
 H  -5.58251118  -2.12843385  -3.11320575
 C  -3.65910521  -2.87497143  -2.43638880
 C  -5.80755879  -2.93311349  -1.13287021
 H  -5.44233636  -3.80547034  -0.57419512
 O  -3.01820682  -3.43473753  -1.55693044
 C  -5.48429442  -1.65286555  -0.37712262
 H  -4.40794055  -1.55075394  -0.23547261
 H  -5.97007772  -1.65851379   0.59993874
 H  -5.84622697  -0.79511080  -0.94737830
 O  -7.21819567  -3.03103031  -1.34344478
 H  -7.63746092  -3.10723779  -0.48363712
 N  -3.05684145  -2.17559306  -3.43849381
 H  -3.65581207  -1.58254159  -3.98985897
 C  -1.68168498  -1.73113385  -3.24592536
 H  -1.12468230  -2.59719350  -2.88332950
 C  -1.63638802  -0.63601955  -2.17066259
 C  -1.10219173  -1.25404114  -4.57758924
 H  -1.70295659  -0.40622395  -4.91664801
 H  -1.25637569  -2.06427137  -5.30011182
 O  -2.56489421   0.12124591  -1.94113204
 C   0.38116896  -0.87885371  -4.60315928
 H   0.55694915  -0.07099686  -3.88636259
 C   1.26828527  -2.05979745  -4.23178090
 H   1.12607919  -2.87378483  -4.95158259
 H   1.04864065  -2.45232488  -3.23377453
 H   2.32269491  -1.77063253  -4.24131997
 C   0.73786242  -0.35707915  -5.99204077
 H   0.57237809  -1.13477722  -6.74089294
 H   1.78652414  -0.05573302  -6.04327557
 H   0.12759787   0.50875647  -6.25758823
 N  -0.46292844  -0.55709124  -1.49919443
 H   0.36343138  -1.05912696  -1.77727685
 C  -0.18915405   0.52003442  -0.58021621
 H  -0.68554032   1.42493326  -0.93683069
 C   1.32857345   0.69788137  -0.61266050
 C  -0.69112555   0.19455851   0.82760370
 H  -0.39876913   0.98326932   1.52481820
 H  -0.25877504  -0.74804882   1.17126677
 H  -1.77702390   0.09761133   0.81529623
 O   2.05964517  -0.16404746  -1.06821078
 N   1.79324754   1.87781381  -0.09953997
 H   1.14172734   2.39318725   0.47022371
 C   3.16117010   1.96081847   0.39080491
 H   3.76911854   1.30000222  -0.22361600
 C   3.17936597   1.49256181   1.85227260
 C   3.68248064   3.40057465   0.28261625
 H   3.54980576   3.71104694  -0.75384461
 H   3.05564246   4.04138985   0.90704391
 O   2.20868569   1.61640111   2.58609110
 C   5.12853374   3.52086789   0.68850234
 C   5.47545199   3.94668915   1.96849500
 H   4.69514838   4.18430157   2.68080370
 C   6.14933346   3.16697874  -0.19209643
 H   5.88717305   2.82287115  -1.18664153
 C   6.81324094   4.01951042   2.35879265
 H   7.08167589   4.31509851   3.36493406
 C   7.49059850   3.24806875   0.18059367
 H   8.26825674   2.97683696  -0.52386056
 O   9.12067284   3.77474901   1.88815728
 H   9.69721098   3.45265685   1.19055898
 C   7.81716883   3.67753801   1.46225786
 N   4.34796647   0.96770523   2.27874724
 H   5.17697770   1.00113375   1.70206100
 C   4.55822029   0.65129278   3.67663784
 H   4.05573666   1.39662720   4.30017170
 C   6.07289653   0.71022700   3.89554890
 C   3.96575351  -0.72231313   4.01074201
 H   4.49308323  -1.51937727   3.48422426
 H   2.93242126  -0.71907172   3.65781528
 O   6.85823519   0.53147235   2.97837703
 C   3.93310461  -1.01508185   5.48245344
 O   3.84852662  -0.17487531   6.35063984
 O   3.97255870  -2.33077476   5.74697432
 N   6.48561893   0.94791021   5.16040128
 H   5.88679424   0.91980600   5.97877148
 C   7.87823957   0.90560419   5.49086162
 H   8.34955167   0.02596697   5.04136150
 C   7.96829760   0.81568061   7.03855045
 C   8.66078646   2.14472907   5.05997705
 H   8.52285214   2.27805571   3.98393965
 H   9.71984441   1.93455763   5.23999778
 O   9.09845801   0.72796663   7.52596535
 C   8.24948903   3.40164961   5.81762959
 H   7.18883890   3.60545648   5.65100264
 H   8.36470042   3.23180367   6.89388175
 C   9.05959665   4.61352927   5.40182885
 H   10.12436668   4.40984786   5.55384369
 H   8.92352916   4.81093445   4.33809935
 C   8.68639279   5.84071803   6.20248204
 H   8.78633038   5.60752260   7.26516043
 H   7.63485198   6.08122031   6.02289369
 N   9.53088075   7.01561001   5.87235665
 H   9.27510573   7.84136616   6.41468667
 H   9.45070445   7.25958093   4.88564263
 H   10.51417504   6.82057905   6.05754611
 O   6.87211437   0.83018306   7.63957385
 H   3.93003627  -2.41500940   6.71002369
