21
conf-234
 N  -4.80616733  -6.82060309  -5.42845156
 H  -5.20347105  -7.42350887  -4.70571984
 H  -5.48193249  -6.07368244  -5.61164199
 H  -4.65694317  -7.35954261  -6.28347221
 C  -3.55313265  -6.19507616  -4.96587232
 H  -2.87581601  -6.96879076  -4.59939384
 C  -3.86917462  -5.21959700  -3.83625695
 C  -2.87806703  -5.44064345  -6.11213066
 H  -1.97611767  -4.95214130  -5.73519248
 H  -3.55257112  -4.65457062  -6.45520878
 O  -4.96926018  -4.70640820  -3.72410131
 C  -2.55255302  -6.32149560  -7.28182659
 C  -2.95350853  -6.28562273  -8.58473263
 H  -3.60529395  -5.56197360  -9.05401309
 N  -1.75246524  -7.44051791  -7.19235203
 H  -1.28755560  -7.77408332  -6.36331272
 C  -1.70349702  -8.01349608  -8.42390943
 H  -1.13280983  -8.90522215  -8.62068665
 N  -2.42476321  -7.34666291  -9.29453346
 N  -2.84116836  -4.96788744  -2.96913882
 H  -1.90776936  -5.19862334  -3.26804470
 C  -2.96422398  -3.90431085  -1.99084512
 H  -4.01181076  -3.61843000  -1.95851046
 C  -2.11776379  -2.70004261  -2.45073711
 C  -2.54870041  -4.41056798  -0.59797055
 H  -1.48440226  -4.67998440  -0.65300564
 O  -0.89386179  -2.80090936  -2.71812472
 C  -2.76590925  -3.38663979   0.49287437
 H  -2.16089133  -2.49936976   0.31209160
 H  -2.49248718  -3.82160157   1.45585010
 H  -3.82292677  -3.10911367   0.52268724
 O  -3.33898591  -5.54129437  -0.25298616
 H  -3.29547736  -6.14529434  -1.00084308
 N  -2.80996892  -1.52674833  -2.49277350
 H  -3.76022425  -1.50854767  -2.17065112
 C  -2.12978925  -0.27551916  -2.78558642
 H  -1.15975448  -0.53604898  -3.19729020
 C  -1.79256708   0.46742837  -1.49460449
 C  -2.85356617   0.51801618  -3.84468215
 H  -2.29964177   1.44307768  -4.01152438
 H  -3.84889677   0.80395013  -3.50279485
 O  -2.13860893   1.61815988  -1.25728886
 C  -2.92813111  -0.27127408  -5.15697643
 H  -3.63196609  -1.09764067  -5.01899549
 C  -3.45663525   0.63109656  -6.26645995
 H  -2.73365756   1.42146235  -6.48631110
 H  -4.40066345   1.10366924  -5.98466616
 H  -3.62615768   0.06557030  -7.18559884
 C  -1.57387583  -0.87117320  -5.53947065
 H  -0.79968388  -0.09671746  -5.50501183
 H  -1.60533569  -1.27017574  -6.55513696
 H  -1.26350140  -1.68574273  -4.88166392
 N  -1.09163184  -0.28711741  -0.59455301
 H  -0.59900157  -1.10114262  -0.94549098
 C  -0.52891956   0.32871795   0.59457876
 H  -1.15857923   1.19006812   0.81769198
 C   0.89327601   0.76955521   0.25383961
 C  -0.50121575  -0.64430047   1.75799991
 H  -0.11978858  -0.14894135   2.65518129
 H   0.15768057  -1.48329504   1.52507491
 H  -1.50616893  -1.02682499   1.96152213
 O   1.73647087  -0.06137493  -0.09537690
 N   1.11354082   2.09824187   0.34207598
 H   0.37392757   2.69661605   0.66448723
 C   2.39555531   2.69929892   0.02336809
 H   2.87615178   2.02119522  -0.68988336
 C   3.23214075   2.78698764   1.31001859
 C   2.20164862   4.09937224  -0.55978851
 H   1.59609170   4.66281762   0.15077267
 H   3.17136732   4.59687021  -0.59711435
 O   3.38783276   3.83769186   1.91737925
 C   1.57765758   4.10536364  -1.92717035
 C   2.36539113   4.28717066  -3.06605888
 H   3.43456591   4.42185792  -2.95987030
 C   0.20150637   3.93292544  -2.10903445
 H  -0.43828211   3.76402630  -1.25319731
 C   1.80958969   4.30568909  -4.34262358
 H   2.42915892   4.44840719  -5.21930270
 C  -0.36916631   3.96429469  -3.38058632
 H  -1.44035574   3.83373619  -3.49022310
 O  -0.07112340   4.19333449  -5.77157530
 H  -1.02536303   4.09914451  -5.71722506
 C   0.43574838   4.15089349  -4.50012404
 N   3.77441252   1.62698298   1.75034123
 H   3.57820946   0.73383966   1.32059207
 C   4.66415326   1.63718088   2.88549546
 H   5.23249830   2.56971069   2.86085730
 C   5.64336036   0.46435358   2.76344985
 C   3.92238271   1.62702103   4.22622647
 H   3.20810268   2.44997739   4.22737307
 H   4.62601545   1.80427608   5.04480103
 O   5.62380718  -0.33279349   1.84878832
 C   3.17602721   0.34982441   4.50623768
 O   2.89470460  -0.49196217   3.68720676
 O   2.83197024   0.25197182   5.80553542
 N   6.54306891   0.40025525   3.76636939
 H   6.50846452   0.94790166   4.61440870
 C   7.47399830  -0.68425087   3.89280587
 H   6.97062027  -1.64810323   3.72513516
 C   7.97519942  -0.59272690   5.36474639
 C   8.64543795  -0.57750641   2.91192374
 H   9.27291662   0.27493707   3.19127936
 H   8.22642928  -0.35425862   1.92957171
 O   8.74958620  -1.47613654   5.75054777
 C   9.46563869  -1.85857725   2.83680995
 H   9.81865193  -2.14843168   3.82818021
 H   8.80614469  -2.66388299   2.49491418
 C   10.63314072  -1.73229385   1.87729890
 H   10.27040903  -1.42515575   0.89287775
 H   11.30962372  -0.94800932   2.22819938
 C   11.40939877  -3.02267189   1.73153246
 H   10.73597627  -3.80543629   1.37431921
 H   11.77210956  -3.33414912   2.71395643
 N   12.55546520  -2.89136530   0.79780743
 H   13.07936580  -3.76179715   0.70130121
 H   13.20619892  -2.17501219   1.11811906
 H   12.23828062  -2.61915956  -0.13200730
 O   7.53222538   0.37904746   6.01485250
 H   2.34913085  -0.57946700   5.90207086
