21
conf-703
 N  -3.73925259  -0.87894432   4.07883353
 H  -4.65222313  -1.16147388   3.71677150
 H  -3.04185349  -1.54460704   3.73567575
 H  -3.75441201  -0.90168937   5.09571796
 C  -3.32584813   0.44723415   3.57468507
 H  -4.17736352   1.13283769   3.57409794
 C  -2.81574078   0.24926426   2.16402082
 C  -2.20768192   1.01378331   4.45148538
 H  -2.54215291   0.99039538   5.49321990
 H  -1.35491480   0.32956019   4.38293388
 O  -2.14792259  -0.74672759   1.88706366
 C  -1.74200972   2.40644138   4.09086300
 H  -2.52861989   3.15884406   4.16850415
 H  -1.35615027   2.42879584   3.07187087
 C  -0.54380916   2.85434548   4.97935451
 O  -0.40408916   4.08192802   5.05842742
 O   0.17067790   1.94596470   5.44572640
 N  -3.10133305   1.20771132   1.25427529
 H  -3.35847730   2.11207901   1.61129741
 C  -2.36883420   1.23156276  -0.00826908
 H  -2.53899385   0.27290262  -0.49595157
 C  -0.88132433   1.43025633   0.30044491
 C  -2.85432340   2.38684404  -0.88124154
 H  -2.16097142   2.52324357  -1.71423132
 H  -2.81790860   3.29836602  -0.28539711
 O  -0.53031910   2.40902266   0.99153729
 C  -4.24116771   2.14186935  -1.39903289
 C  -5.39202803   2.76781755  -1.01637794
 H  -5.53620850   3.57143147  -0.30999397
 C  -4.62003572   1.15029123  -2.37179982
 C  -6.01491444   1.21668790  -2.51941329
 C  -3.88613612   0.21316122  -3.10828190
 H  -2.80523810   0.15363359  -3.00688278
 N  -6.46594454   2.21334645  -1.68488825
 H  -7.42083498   2.49694886  -1.58027515
 C  -5.96804030  -0.54994808  -4.10394039
 H  -6.47189398  -1.22426612  -4.78597927
 C  -6.71524976   0.36845716  -3.38205162
 H  -7.79316526   0.43105923  -3.48022544
 C  -4.56836963  -0.62417382  -3.97341202
 H  -4.02100580  -1.35507829  -4.55635842
 N  -0.03782159   0.49275564  -0.18399246
 H  -0.40117870  -0.28569039  -0.70755467
 C   1.31320935   0.36336578   0.30002179
 H   1.65886847   1.36128373   0.57625349
 C   2.15785086  -0.21086822  -0.84256001
 C   1.40000503  -0.56132774   1.54006955
 H   2.43847437  -0.88390126   1.66383156
 O   1.66652398  -0.72852870  -1.82750185
 C   0.92859760   0.13939368   2.80374076
 H   1.63256416   0.90618540   3.13000398
 H   0.80509191  -0.59157800   3.60576212
 H  -0.02617670   0.63644764   2.64031618
 O   0.65100467  -1.73689611   1.31324447
 H  -0.27754793  -1.46977472   1.30542898
 N   3.50012979  -0.10023606  -0.66270272
 H   3.87232926   0.21395800   0.22012069
 C   4.43012969  -0.74616922  -1.56275733
 H   3.89474008  -1.53501894  -2.09980359
 C   5.53067503  -1.37827269  -0.73778699
 C   5.04298462   0.21050645  -2.59419365
 H   5.78341270  -0.35397003  -3.16398742
 H   5.57586349   1.01011647  -2.08076115
 O   5.74449998  -1.15377945   0.42707457
 C   3.99870662   0.78914270  -3.53673241
 H   3.43115714  -0.02076950  -4.00351071
 H   3.29005595   1.39321876  -2.98346788
 C   4.61609669   1.64374849  -4.63285766
 H   5.33292641   1.05202078  -5.20773131
 H   3.84914855   1.97648755  -5.34527335
 N   5.36925964   2.79348248  -4.10079904
 H   6.31839904   2.89768909  -4.42350205
 N   3.43991368   3.95786461  -3.50069134
 H   3.01985880   4.86975332  -3.40687472
 H   2.91693237   3.31483357  -4.07791040
 N   5.56159147   4.94055694  -3.22099884
 H   6.51205879   4.69761572  -2.96457135
 H   5.13033347   5.56976723  -2.55619744
 C   4.78383701   3.89293461  -3.61367128
 O   6.27663149  -2.22626233  -1.47176972
 H   6.95703138  -2.56467153  -0.87624534
