21
conf-34
 N  -5.65899398   1.62166286   3.13809665
 H  -6.17865821   1.99856013   2.34574662
 H  -5.86853568   0.62472014   3.18625702
 H  -5.99233552   2.06731745   3.99117426
 C  -4.21226425   1.82132208   2.94719759
 H  -4.00595610   2.89348841   2.84448738
 C  -3.78733461   1.13629705   1.64668035
 C  -3.39928802   1.29753775   4.12524619
 H  -3.61685016   0.23839877   4.27106244
 H  -2.33829933   1.37597825   3.88717366
 O  -4.55117887   0.42607004   1.00621498
 C  -3.64114887   2.04595713   5.43217522
 H  -4.66497269   1.90669981   5.79140295
 H  -3.43159177   3.10906575   5.31247658
 C  -2.65550938   1.41742166   6.43121129
 O  -1.54207746   1.96645991   6.51958756
 O  -3.06854260   0.40354877   7.02338063
 N  -2.50490344   1.35766624   1.27009350
 H  -1.93237159   2.03240548   1.75154389
 C  -1.99603444   0.80763019   0.02494485
 H  -2.33143384  -0.23066714  -0.04384788
 C  -0.47432943   0.87020927   0.07793286
 C  -2.52633731   1.57909621  -1.19862744
 H  -2.10857453   2.58612134  -1.19190808
 H  -3.60975610   1.64738901  -1.12601397
 O   0.11432719   1.91159976   0.34825042
 C  -2.11132336   0.84164176  -2.42717360
 C  -0.90205305   0.95246969  -3.04046513
 H  -0.08288539   1.60602390  -2.82349909
 C  -2.77408442  -0.28758336  -3.02548872
 C  -1.90927977  -0.80758357  -4.00538544
 C  -3.99833172  -0.91121523  -2.76107366
 H  -4.65054266  -0.54281706  -1.97438836
 N  -0.77702786  -0.01471892  -4.01697008
 H   0.13005640  -0.30147566  -4.34351909
 C  -3.47842934  -2.51226359  -4.51523382
 H  -3.77771003  -3.38006587  -5.09101728
 C  -2.24913713  -1.92197660  -4.77094896
 H  -1.58419342  -2.31089267  -5.53427887
 C  -4.34328829  -2.01704249  -3.52182843
 H  -5.29037221  -2.51395208  -3.34881644
 N   0.17901867  -0.29602679  -0.15463573
 H  -0.26775446  -1.03037346  -0.67700465
 C   1.61816899  -0.37091398  -0.08372887
 H   1.93535060   0.11460974   0.83777004
 C   2.31173581   0.37202654  -1.25066965
 C   2.05960670  -1.84917520  -0.08846095
 H   3.15060491  -1.87989272  -0.20648176
 O   1.92150182   0.33055298  -2.43998885
 C   1.66028131  -2.59035203   1.16699494
 H   2.13740666  -2.15009308   2.04698779
 H   1.96461541  -3.63453846   1.08474530
 H   0.57955903  -2.55800694   1.30712736
 O   1.44370899  -2.51643312  -1.18899580
 H   1.75088772  -2.07803204  -1.99534197
 N   3.45282761   1.02882793  -0.87271940
 H   3.85186704   0.83366668   0.02928694
 C   4.34529820   1.60690041  -1.85539157
 H   4.08322120   1.19202848  -2.83439312
 C   5.75664497   1.19196602  -1.52696791
 C   4.22236241   3.12889646  -1.92412692
 H   4.89381538   3.48152704  -2.70665653
 H   4.56037886   3.56936121  -0.98432902
 O   6.11547235   0.70888094  -0.48361782
 C   2.79671468   3.57427460  -2.22115583
 H   2.44054516   3.05565918  -3.11375746
 H   2.13904595   3.27896084  -1.40782495
 C   2.70394654   5.07404941  -2.43738145
 H   3.08830726   5.60404747  -1.55696445
 H   3.33053380   5.35621327  -3.28774355
 N   1.30574357   5.45661229  -2.70854890
 H   0.62097382   4.92850813  -2.19145436
 N   1.88736183   7.64671997  -3.27506973
 H   1.62724244   8.61845921  -3.21600137
 H   2.83438960   7.44193952  -2.99788553
 N  -0.36629990   7.04650237  -2.99744332
 H  -1.00338337   6.27463258  -3.14714128
 H  -0.60779388   7.86746124  -3.53364072
 C   0.95192611   6.72174388  -2.98350357
 O   6.59199045   1.44298719  -2.55269086
 H   7.46803013   1.16440782  -2.25670614
