21
conf-123
 N  -4.16685387  -0.12148320   3.98675441
 H  -5.06853450  -0.12746950   3.50399873
 H  -3.81477793  -1.08142698   3.99086797
 H  -4.31767238   0.16905630   4.95221495
 C  -3.20138783   0.77230432   3.31314917
 H  -3.63639531   1.77315954   3.25956564
 C  -2.89619404   0.29575188   1.87832426
 C  -1.87365206   0.82613983   4.07805804
 H  -2.08626711   0.88623119   5.14630655
 H  -1.36276907  -0.12255197   3.90299354
 O  -2.84246445  -0.91836045   1.55817040
 C  -0.96083220   1.97329914   3.68077383
 H  -1.48724235   2.92341017   3.59198251
 H  -0.44801413   1.74967724   2.74325819
 C   0.13023902   2.16439015   4.78212156
 O   0.83230506   1.16268338   5.04320512
 O   0.22637724   3.27731521   5.29282285
 N  -2.60230182   1.31675022   1.01541138
 H  -2.50966265   2.24159195   1.40091026
 C  -1.88977665   1.03520808  -0.22795658
 H  -2.07765783  -0.00639431  -0.47406579
 C  -0.39653575   1.15828278   0.03773579
 C  -2.42569308   1.86981195  -1.37105345
 H  -1.75972781   1.76203960  -2.23098877
 H  -2.41315246   2.93145800  -1.11674355
 O   0.25717934   2.16264005  -0.24183939
 C  -3.81293638   1.39201420  -1.71393891
 C  -4.52470762   0.33728482  -1.18812673
 H  -4.24726493  -0.34347269  -0.39363180
 C  -4.66214414   1.98357740  -2.71564452
 C  -5.86135507   1.25473382  -2.74137195
 C  -4.49586889   3.07348155  -3.58132001
 H  -3.57891456   3.65519529  -3.58038709
 N  -5.75615524   0.25909798  -1.79811794
 H  -6.46443565  -0.42716918  -1.61236446
 C  -6.72504436   2.64921663  -4.45617006
 H  -7.51507706   2.92640131  -5.14361961
 C  -6.91094288   1.56907750  -3.60660914
 H  -7.82851655   0.99117256  -3.60979009
 C  -5.53054686   3.39339372  -4.44333869
 H  -5.42402961   4.23140499  -5.12203120
 N   0.14633840   0.09844181   0.69038464
 H  -0.46945235  -0.64496856   1.00802113
 C   1.52934544   0.12311836   1.14048452
 H   1.73416225   1.14666061   1.48255835
 C   2.45204622  -0.22085662  -0.04033147
 C   1.73682394  -0.84385285   2.31462928
 H   1.61179879  -1.85733931   1.91723368
 O   2.95556703  -1.32234863  -0.20985898
 C   3.12199642  -0.71138764   2.93724261
 H   3.88460983  -1.07785337   2.25129242
 H   3.16580198  -1.29556112   3.85863741
 H   3.35242668   0.33253891   3.16745692
 O   0.72994024  -0.66390630   3.28528595
 H   0.83338453   0.14847781   3.80546313
 N   2.67750194   0.79583629  -0.90976727
 H   2.08458140   1.61598352  -0.85914194
 C   3.41003383   0.53345895  -2.13307291
 H   2.96820387  -0.32976268  -2.64508812
 C   4.84993041   0.14661601  -1.85342982
 C   3.34210213   1.75983754  -3.04632902
 H   3.80260493   2.60403063  -2.53891638
 H   2.28262293   1.99976098  -3.18136297
 O   5.45329543  -0.70401917  -2.46166023
 C   3.98821515   1.53370821  -4.40303875
 H   5.05125789   1.31493254  -4.29315228
 H   3.54039214   0.65011731  -4.87125284
 C   3.80770627   2.72391253  -5.32203307
 H   4.17710293   2.49773192  -6.32916363
 H   2.74427447   2.95707336  -5.40245445
 N   4.51540776   3.89260010  -4.75365004
 H   5.41727272   3.67065317  -4.35439255
 N   3.63562976   5.35168681  -6.35977171
 H   3.41024337   6.30906061  -6.57835625
 H   2.91378737   4.67677294  -6.55042378
 N   5.35356592   6.04356282  -4.91913192
 H   5.71152232   5.94756091  -3.97849211
 H   5.17551784   6.99469993  -5.20298978
 C   4.48010103   5.09832345  -5.34250288
 O   5.41830878   0.89829314  -0.88959956
 H   6.32687455   0.58333038  -0.80673125
