21
conf-293
 N  -8.74276634  -4.22102993  -6.28315795
 H  -8.63545349  -4.68648772  -5.37672739
 H  -9.15897738  -4.88232285  -6.93806839
 H  -9.38499918  -3.43386400  -6.16310697
 C  -7.44216970  -3.70121091  -6.79044511
 H  -6.74227912  -4.53618884  -6.87207419
 C  -6.91340573  -2.71502315  -5.74843683
 C  -7.62540543  -3.03378890  -8.13463977
 H  -6.67532403  -2.65265758  -8.51299345
 H  -8.03248133  -3.74516032  -8.85702740
 H  -8.31743063  -2.19698729  -8.04025971
 O  -7.35018691  -1.56364527  -5.66508039
 N  -6.05878460  -3.26480184  -4.84401327
 H  -5.56918262  -4.11812299  -5.07208462
 C  -5.49644755  -2.51291334  -3.74347367
 H  -5.96883257  -1.53540139  -3.75035718
 C  -3.98616164  -2.39953966  -3.97134339
 C  -5.75219250  -3.20380514  -2.39537816
 H  -5.29506310  -4.19541745  -2.41609271
 H  -5.22855775  -2.64335285  -1.61264594
 O  -3.33562838  -3.35034281  -4.38340067
 C  -7.21416408  -3.31926082  -2.05064498
 C  -8.28504409  -2.67077954  -2.61461914
 H  -8.30478546  -1.97369621  -3.43527922
 C  -7.75831252  -4.14779448  -1.00280834
 C  -9.14839863  -3.96405566  -0.99353059
 C  -7.17031317  -5.02873398  -0.08645998
 H  -6.09687339  -5.18871148  -0.07221374
 N  -9.44784139  -3.06552732  -1.99016346
 H  -10.36473697  -2.71415388  -2.19618802
 C  -9.38511658  -5.49284215   0.80524955
 H  -9.99877375  -6.02767115   1.52000445
 C  -9.98707207  -4.62723616  -0.09507953
 H  -11.05983279  -4.46920268  -0.10582370
 C  -7.99138942  -5.69136203   0.80943986
 H  -7.55854158  -6.37746499   1.52799808
 N  -3.43435230  -1.19911082  -3.65029338
 H  -3.96442598  -0.52276566  -3.11735777
 C  -2.00217318  -1.01764587  -3.52521022
 H  -1.53031466  -1.99977529  -3.42256005
 C  -1.78912594  -0.17843605  -2.26130790
 C  -1.39172478  -0.31156246  -4.73988390
 H  -1.90898885   0.63243277  -4.92257518
 H  -0.34991347  -0.06122007  -4.51175040
 O  -2.67427127   0.52493823  -1.80213328
 C  -1.44793167  -1.17167383  -5.99566979
 H  -0.85974568  -2.08505221  -5.89604067
 H  -2.47202862  -1.46703136  -6.22097125
 C  -0.92612684  -0.37700407  -7.24050140
 O  -0.28780424  -1.06456317  -8.05752451
 O  -1.25476956   0.81888374  -7.28118322
 N  -0.54979960  -0.23991355  -1.72142063
 H   0.20724850  -0.72363646  -2.17951305
 C  -0.16289769   0.62580379  -0.62195386
 H  -0.63135307   1.60279928  -0.79067232
 C   1.36472599   0.73932957  -0.68916606
 C  -0.69258372   0.10986464   0.74180531
 H  -1.74990223  -0.08154313   0.54589893
 O   2.04583737  -0.08582434  -1.28015514
 C  -0.02445771  -1.19311105   1.17362421
 H   1.02620831  -1.02013822   1.41423930
 H  -0.51621653  -1.58562087   2.06696274
 H  -0.07629621  -1.95026618   0.38774858
 C  -0.60434011   1.15731038   1.84808496
 H   0.42778275   1.33045207   2.16224113
 H  -1.04044362   2.10933645   1.53197625
 H  -1.16275844   0.81183344   2.72143162
 N   1.88747909   1.79105843  -0.01445052
 H   1.28194168   2.49574520   0.36524879
 C   3.31267537   2.04459011   0.08119868
 H   3.82371790   1.10871991  -0.12579223
 C   3.59501240   2.51512413   1.49764636
 C   3.79420959   3.10696789  -0.92006691
 H   4.83810257   3.35725847  -0.66676756
 O   3.00935679   3.50803004   1.94977415
 C   3.73375625   2.60956286  -2.34479820
 H   4.33707943   1.70625338  -2.46870432
 H   2.70729328   2.37505186  -2.62017624
 H   4.10249334   3.37957950  -3.02368959
 O   2.98863745   4.28356442  -0.85880519
 H   2.98871238   4.57133517   0.05685800
 N   4.46827856   1.79791823   2.22400430
 H   4.98598452   1.05240781   1.79162017
 C   4.77815338   2.13422170   3.61328137
 H   3.83849986   2.44347134   4.07520865
 C   5.74541619   3.32480102   3.60642637
 C   5.35126150   0.93747390   4.38319973
 H   6.31921956   0.70641051   3.93374427
 O   6.96344002   3.20475954   3.65578835
 C   5.55757700   1.30505084   5.85660282
 H   4.59309606   1.53571075   6.31543028
 H   6.20979991   2.17269914   5.96510458
 H   6.00250895   0.46755647   6.39817323
 C   4.44775166  -0.28664250   4.28843192
 H   3.46748616  -0.06756515   4.71944878
 H   4.88465880  -1.11735192   4.84726584
 H   4.30560121  -0.61385636   3.25912511
 N   5.13223507   4.52984914   3.51455594
 H   4.14652336   4.55278698   3.29081147
 C   5.90141334   5.73950240   3.37472268
 H   6.93519852   5.42554090   3.18634531
 C   5.97730171   6.53848201   4.66948710
 C   5.40198829   6.60169799   2.22047504
 H   5.90092832   7.56998887   2.27227328
 H   4.33310239   6.78769519   2.34896622
 O   6.10929110   7.73487380   4.71905951
 C   5.66361168   5.96137084   0.86714078
 H   6.73420345   5.74242436   0.78543072
 H   5.14712375   4.99941017   0.79312861
 C   5.26539308   6.86092992  -0.29054264
 H   4.18462842   7.03836814  -0.26766556
 H   5.75203730   7.83360595  -0.17813001
 C   5.64742051   6.28835889  -1.63796497
 H   5.08894867   5.36687450  -1.81500967
 H   6.71077380   6.03554905  -1.63194797
 N   5.37166440   7.23168147  -2.74826432
 H   5.64500105   6.85014861  -3.65456455
 H   4.37868158   7.45702434  -2.79514843
 H   5.87888114   8.10586104  -2.61618357
 O   5.95022090   5.76032008   5.76988104
 H   6.04789634   6.36012965   6.52122674
