21
conf-497
 N  -6.11759523   0.40923546  -6.26547065
 H  -7.08107449   0.07520719  -6.21114988
 H  -6.00703151   0.99941612  -7.08656353
 H  -5.92836633   0.95890570  -5.42324709
 C  -5.14306401  -0.70333886  -6.25707646
 H  -5.50406853  -1.51383149  -6.89158686
 C  -5.03638518  -1.17849151  -4.81494282
 C  -3.78323101  -0.21453851  -6.73279291
 H  -3.03479586  -1.00767249  -6.74766669
 H  -3.85347131   0.20793487  -7.73747398
 H  -3.43624558   0.56800673  -6.05254890
 O  -5.08451875  -0.35602289  -3.90218943
 N  -4.86708796  -2.49727314  -4.60251051
 H  -4.78129416  -3.12741716  -5.38217157
 C  -4.73338752  -3.05847292  -3.25911449
 H  -5.41218342  -2.49319059  -2.61649227
 C  -3.28677044  -2.85396735  -2.79951709
 C  -5.12322415  -4.53838687  -3.29382052
 H  -6.03774860  -4.62444739  -3.88142113
 H  -4.33435650  -5.08663724  -3.81011737
 O  -2.44280201  -3.74350120  -2.85060367
 C  -5.35709286  -5.12859462  -1.93466023
 C  -4.43362677  -5.75550589  -1.15080549
 H  -3.38572106  -5.91598769  -1.34135057
 C  -6.59520115  -5.13475497  -1.19144844
 C  -6.34496232  -5.77846990   0.03244648
 C  -7.87982791  -4.64963443  -1.46997984
 H  -8.09828070  -4.14883249  -2.40828362
 N  -5.01833689  -6.14586763   0.03647243
 H  -4.54872620  -6.62653104   0.77911233
 C  -8.59870442  -5.46644954   0.70460256
 H  -9.39625237  -5.58369100   1.42832443
 C  -7.33579213  -5.95511491   1.00065941
 H  -7.12121114  -6.45338371   1.93949267
 C  -8.86768633  -4.82076878  -0.51694983
 H  -9.86824678  -4.45351179  -0.71177451
 N  -2.99825398  -1.59395723  -2.40015032
 H  -3.69463051  -0.86019616  -2.48136233
 C  -1.63852980  -1.16631595  -2.18428199
 H  -1.03910997  -2.05700528  -1.98641421
 C  -1.63445512  -0.22263732  -0.97838230
 C  -1.07660844  -0.43469164  -3.41055395
 H  -1.74739992   0.39806958  -3.63993621
 H  -0.10021902  -0.00642281  -3.18126178
 O  -2.53965905   0.57696593  -0.79682763
 C  -0.92949141  -1.35839148  -4.61468428
 H  -0.28031932  -2.20105425  -4.35770743
 H  -1.87626675  -1.77151926  -4.94897072
 C  -0.24387734  -0.63915491  -5.80065637
 O  -0.57843788  -1.03900972  -6.93680311
 O   0.62672314   0.19506644  -5.50850535
 N  -0.55590502  -0.32549747  -0.16298792
 H   0.22569743  -0.90524940  -0.42901796
 C  -0.27029621   0.66836500   0.85936766
 H  -0.88929059   1.54608227   0.66247502
 C   1.20790253   1.00958278   0.71518021
 C  -0.60779720   0.15428117   2.27461982
 H  -0.03538586  -0.77016345   2.41413473
 O   2.03531888   0.14277000   0.45435609
 C  -0.23029174   1.14094598   3.37949982
 H  -0.76573718   2.08570333   3.23964352
 H  -0.52972257   0.73116532   4.34762992
 H   0.84107168   1.35921927   3.45016437
 C  -2.09863915  -0.15782999   2.37520349
 H  -2.67436634   0.76338504   2.24711334
 H  -2.42323954  -0.86539001   1.61380775
 H  -2.33174404  -0.57667603   3.35559005
 N   1.56044603   2.31891556   0.89361755
 H   0.90648108   2.88271989   1.41955780
 C   2.96567116   2.62849670   1.17024485
 H   3.57540078   2.02082321   0.50205917
 C   3.23987771   2.24196122   2.62963713
 C   3.22107482   4.11149285   0.88218053
 H   2.45314645   4.69211309   1.41641111
 O   2.75987765   2.92101045   3.58017967
 C   4.59542632   4.56025770   1.32373719
 H   4.66981971   4.46722697   2.41221994
 H   5.35778390   3.93239574   0.85980900
 H   4.75725403   5.59802096   1.03721002
 O   3.12896506   4.34383195  -0.51856109
 H   2.27201281   4.01405743  -0.80403065
 N   3.93644960   1.09291528   2.79356103
 H   4.19072563   0.54904830   1.98902425
 C   4.15937515   0.53645091   4.11981275
 H   3.41996480   0.99818473   4.78146977
 C   5.55177651   0.97894887   4.56880677
 C   3.93458655  -0.96991253   4.15147665
 H   4.68611803  -1.42840668   3.50733368
 O   6.54536934   0.27194763   4.50773446
 C   4.07942706  -1.52441367   5.57058717
 H   3.31343612  -1.09095299   6.21804351
 H   5.05789645  -1.29327364   5.99121856
 H   3.95110305  -2.60866710   5.56648038
 C   2.53899805  -1.27169728   3.60988953
 H   1.78825918  -0.71800930   4.18714482
 H   2.31448392  -2.33687354   3.69436255
 H   2.44858209  -0.98954588   2.56224001
 N   5.61656026   2.26526160   5.00069608
 H   4.78521272   2.84074964   4.94501036
 C   6.88696082   2.84477226   5.39760695
 H   7.62417515   2.65240927   4.61075237
 C   7.44162732   2.19170278   6.65257085
 C   6.71939214   4.35301055   5.59947715
 H   6.08226888   4.52490862   6.46928564
 H   6.17908346   4.73053859   4.72421841
 O   8.60687728   1.92914518   6.82491306
 C   8.03670794   5.09515336   5.74384287
 H   8.59820022   4.70515299   6.59662118
 H   8.64148906   4.88817885   4.85579954
 C   7.83606837   6.59282644   5.90335625
 H   7.30115545   6.98943523   5.03519060
 H   7.20169254   6.77559986   6.77691364
 C   9.12787831   7.36531541   6.08971371
 H   9.68675778   6.92570882   6.92027594
 H   8.91065621   8.39934325   6.36345020
 N   9.98361088   7.35005369   4.87514296
 H   10.85504057   7.86260226   5.01247775
 H   10.23186225   6.39666638   4.61432889
 H   9.49985432   7.76323420   4.07818499
 O   6.49913088   1.98211798   7.59464555
 H   6.95734802   1.58950268   8.34827443
