21
conf-962
 N  -6.77217120  -3.92046846  -7.71792092
 H  -7.71472334  -3.53944771  -7.62474454
 H  -6.78427717  -4.68944748  -8.38426639
 H  -6.17511872  -3.17219269  -8.07903716
 C  -6.21814174  -4.33654124  -6.41201538
 H  -6.97300243  -4.90391939  -5.86332960
 C  -5.87527544  -3.08198005  -5.61196110
 C  -4.97441177  -5.19019355  -6.60578468
 H  -4.56200304  -5.50249711  -5.64538438
 H  -5.20341885  -6.08345095  -7.19183759
 H  -4.21036039  -4.61453995  -7.13405112
 O  -5.55512834  -2.03528555  -6.15045759
 N  -5.95513488  -3.21897844  -4.25658401
 H  -5.91882155  -4.14691245  -3.87052551
 C  -5.46757287  -2.15811200  -3.39033904
 H  -5.63510053  -1.21762044  -3.90530723
 C  -3.97942474  -2.35455943  -3.14725432
 C  -6.21465479  -2.16913409  -2.04892346
 H  -7.27078253  -1.98840307  -2.25121288
 H  -6.11946706  -3.16276663  -1.60761739
 O  -3.54368450  -3.34667734  -2.58530945
 C  -5.65893048  -1.16037266  -1.08335323
 C  -5.07493558  -1.44699335   0.11773264
 H  -4.95706034  -2.39616711   0.61762969
 C  -5.51240973   0.25623894  -1.28179573
 C  -4.84224590   0.77187901  -0.15795703
 C  -5.87573822   1.12551417  -2.32396021
 H  -6.39514499   0.74719904  -3.19932305
 N  -4.60990335  -0.28084727   0.69945586
 H  -4.00892813  -0.24350970   1.50300449
 C  -4.88782391   2.96125835  -1.07406298
 H  -4.65481675   4.01713767  -1.01321586
 C  -4.51501589   2.12093034  -0.03156630
 H  -3.99445808   2.49223371   0.84422802
 C  -5.56000067   2.46945287  -2.20588478
 H  -5.83492508   3.15445269  -2.99803547
 N  -3.18477618  -1.34736740  -3.60036628
 H  -3.62050810  -0.47115772  -3.83409397
 C  -1.78942865  -1.29162123  -3.20003495
 H  -1.44352815  -2.31865104  -3.07933368
 C  -1.70098183  -0.51649181  -1.88994897
 C  -0.94695297  -0.59429883  -4.27143104
 H  -1.14243039  -1.08550089  -5.22668838
 H  -1.27758072   0.44335406  -4.34657201
 O  -1.94601428   0.68580674  -1.85606487
 C   0.54991125  -0.65438284  -3.98627223
 H   1.09887997   0.11872509  -4.53044124
 H   0.77792076  -0.50074381  -2.93445442
 C   1.19319786  -2.01741286  -4.39599918
 O   2.41344786  -2.06022567  -4.17135786
 O   0.46811419  -2.89609541  -4.88754659
 N  -1.31930704  -1.23367399  -0.79334403
 H  -1.00383697  -2.16755198  -1.00622086
 C  -0.56055526  -0.53531498   0.24642705
 H  -1.00292215   0.45940488   0.29919209
 C   0.92294317  -0.40005209  -0.19286049
 C  -0.69903262  -1.21792326   1.62121375
 H  -1.78101028  -1.28780610   1.78614002
 O   1.53534929  -1.28993099  -0.83270609
 C  -0.11186437  -2.62380378   1.63096697
 H   0.95307258  -2.57951623   1.39678622
 H  -0.23220585  -3.08020767   2.61475267
 H  -0.59397055  -3.26910584   0.89377269
 C  -0.10608338  -0.37876723   2.75381429
 H   0.98650726  -0.40269564   2.72683018
 H  -0.42378462   0.66736859   2.70557450
 H  -0.42143995  -0.77870143   3.72030878
 N   1.49347726   0.78338588   0.17504593
 H   1.00753531   1.40333764   0.79973547
 C   2.92458755   0.96525277   0.13495678
 H   3.38642161  -0.01614280   0.00346685
 C   3.34232413   1.58329464   1.46604099
 C   3.37938765   1.82119917  -1.06296528
 H   4.48049738   1.78805579  -1.07281750
 O   2.53128499   2.10606480   2.21516635
 C   2.84261864   1.28335679  -2.37522098
 H   2.86805510   0.19306646  -2.40204592
 H   1.80803527   1.61369543  -2.49626190
 H   3.42541488   1.68745633  -3.20140943
 O   2.92268584   3.16120664  -0.96136850
 H   3.40423491   3.60697284  -0.25959714
 N   4.67065904   1.51428835   1.72712197
 H   5.32221612   1.26756238   0.99868163
 C   5.28720116   2.21947561   2.83005088
 H   4.62570656   3.04132908   3.12547962
 C   6.61840917   2.77235922   2.30202831
 C   5.50890523   1.33249623   4.07717086
 H   5.96455639   1.99585805   4.82500396
 O   7.10238132   2.39149578   1.24831668
 C   4.18180003   0.82809987   4.63450887
 H   3.73393072   0.10867935   3.94901222
 H   3.47082810   1.64215152   4.78430144
 H   4.34195343   0.32277531   5.58842170
 C   6.46536779   0.17435857   3.80650363
 H   6.01671141  -0.51489269   3.08738142
 H   6.66256662  -0.37847505   4.72754290
 H   7.41598059   0.52521972   3.39693577
 N   7.21512441   3.68579182   3.10518331
 H   6.82720615   3.89286425   4.01178853
 C   8.55851335   4.16146948   2.85611653
 H   9.05582397   3.44996311   2.18921528
 C   9.30040995   4.19835137   4.17489640
 C   8.59315620   5.54768929   2.20186461
 H   9.63769896   5.84950510   2.11690239
 H   8.09971548   6.26931050   2.85719291
 O   8.78843161   4.13614128   5.26483594
 C   7.94349400   5.55115466   0.82666482
 H   8.36842835   4.73649060   0.23389927
 H   6.87956174   5.33851978   0.92131668
 C   8.11863862   6.86885204   0.08478151
 H   9.18431804   7.09929581  -0.02572653
 H   7.70890624   6.77047739  -0.92463020
 C   7.43657870   8.03687890   0.76589639
 H   7.89564504   8.21678809   1.74041371
 H   6.38672185   7.78901555   0.94248051
 N   7.52859034   9.28175220  -0.03864486
 H   7.07506425   10.07306525   0.41823983
 H   8.50123549   9.53758928  -0.20206608
 H   7.08862338   9.15854964  -0.94923636
 O   10.62837857   4.33741876   3.99512658
 H   11.01276117   4.37300394   4.88036419
