21
conf-883
 N  -5.74634692  -3.15351833  -8.68737774
 H  -6.73273043  -3.41265763  -8.63741433
 H  -5.34198966  -3.55167902  -9.53254899
 H  -5.69882450  -2.13371963  -8.74675959
 C  -5.00678036  -3.57990251  -7.48194912
 H  -5.25364406  -4.62074488  -7.25850248
 C  -5.42620209  -2.70857930  -6.29866757
 C  -3.50405427  -3.44405903  -7.69689339
 H  -2.94771698  -3.75834384  -6.81024615
 H  -3.17925357  -4.04801068  -8.54770892
 H  -3.25998329  -2.39861261  -7.90084644
 O  -5.80349507  -1.55195666  -6.45936838
 N  -5.31647812  -3.31891141  -5.08335927
 H  -4.74235457  -4.14841777  -5.06912563
 C  -5.16573927  -2.56805660  -3.85124231
 H  -5.40260185  -1.52443647  -4.04736652
 C  -3.69672632  -2.71078374  -3.42769708
 C  -6.08097020  -3.08788420  -2.73760850
 H  -5.88972975  -4.15140052  -2.56908316
 H  -5.81366669  -2.58096092  -1.80301287
 O  -3.00151607  -3.62987478  -3.82798016
 C  -7.53960775  -2.86402859  -3.02657798
 C  -8.12327612  -2.22236779  -4.08747634
 H  -7.65436964  -1.77405032  -4.94605216
 C  -8.62603499  -3.29723170  -2.17949099
 C  -9.82518586  -2.89861084  -2.78979713
 C  -8.66332186  -3.99194524  -0.96428002
 H  -7.74854313  -4.31094349  -0.47402916
 N  -9.49352145  -2.24953751  -3.95667622
 H  -10.14753930  -1.83670312  -4.59464618
 C  -11.09047873  -3.85363688  -1.02416355
 H  -12.04001379  -4.08114882  -0.55496323
 C  -11.07527984  -3.16648345  -2.22874682
 H  -11.98988476  -2.84943213  -2.71730621
 C  -9.89777522  -4.26195797  -0.39857704
 H  -9.95211739  -4.79734757   0.54200703
 N  -3.24534301  -1.78140998  -2.55186739
 H  -3.85447330  -1.10133401  -2.12389312
 C  -1.92096217  -1.87409502  -1.98099468
 H  -1.72779323  -2.91461706  -1.71038705
 C  -1.92736604  -0.99203793  -0.72448879
 C  -0.83163687  -1.46403831  -2.98186541
 H   0.15115908  -1.64688426  -2.53831925
 H  -0.92594538  -2.11414398  -3.85131393
 O  -2.85129689  -0.23799420  -0.46822096
 C  -0.89890342  -0.00585911  -3.42710549
 H  -1.85416098   0.21976650  -3.89916490
 H  -0.73317934   0.66733173  -2.58559292
 C   0.25095971   0.14726371  -4.44982211
 O   1.36802548   0.36141588  -3.94927669
 O  -0.05788989   0.01204383  -5.64714968
 N  -0.83072356  -1.11584053   0.05944041
 H  -0.05074042  -1.68168636  -0.23927163
 C  -0.58762217  -0.25963806   1.21073255
 H  -1.23558175   0.61492138   1.12176731
 C   0.87738317   0.14339060   1.14170775
 C  -0.89316707  -0.96863149   2.54543249
 H  -0.39456497  -1.93946147   2.50058484
 O   1.75607410  -0.70112194   0.98478590
 C  -0.34711202  -0.20477279   3.75581434
 H  -0.76803498   0.80581886   3.79307526
 H  -0.62900064  -0.72145501   4.67614142
 H   0.73979962  -0.12214970   3.73363042
 C  -2.39758039  -1.17964794   2.68368042
 H  -2.89365142  -0.20924688   2.78173384
 H  -2.82102274  -1.68501335   1.81541305
 H  -2.62191038  -1.77152269   3.57271972
 N   1.15241060   1.45556633   1.30986757
 H   0.40963160   2.13695625   1.26841436
 C   2.51803729   1.94440844   1.34314027
 H   2.99900164   1.72954761   0.38156574
 C   3.27255573   1.23457430   2.46459759
 C   2.48428624   3.46631132   1.58133907
 H   2.06232022   3.62482715   2.57414152
 O   2.84480581   1.22235706   3.61676000
 C   3.85312827   4.10640850   1.47953125
 H   4.55357603   3.67167441   2.19769321
 H   4.25088265   3.96046489   0.47123502
 H   3.77240851   5.17771254   1.67202026
 O   1.58280470   4.08298673   0.67556273
 H   1.98842814   4.07757816  -0.19513728
 N   4.44532942   0.66042218   2.12231621
 H   4.71383831   0.57270125   1.15623134
 C   5.16330507  -0.17802579   3.06595784
 H   5.12529214   0.33299387   4.03061460
 C   6.60087240  -0.28659978   2.57056904
 C   4.49336196  -1.56476312   3.24839886
 H   3.47758392  -1.32381642   3.57059554
 O   6.86964735  -0.36503492   1.38434274
 C   4.42160649  -2.34843243   1.93781081
 H   5.41448485  -2.70070362   1.65896993
 H   4.03976807  -1.72313584   1.13159434
 H   3.75925218  -3.20991597   2.05067122
 C   5.16717866  -2.39526001   4.33840575
 H   6.17393506  -2.68939675   4.04085065
 H   4.59006447  -3.30488369   4.52061085
 H   5.22740323  -1.84556609   5.28218824
 N   7.54938832  -0.28894601   3.54885794
 H   7.24302632  -0.43587210   4.49771935
 C   8.91351504  -0.68730011   3.25103844
 H   9.06792459  -0.54487716   2.18162210
 C   9.10201877  -2.14753768   3.59088686
 C   9.91297321   0.16248597   4.04186106
 H   9.75815890  -0.00746068   5.11053970
 H   9.67420319   1.20893740   3.84453722
 O   8.63714395  -2.69242808   4.56712018
 C   11.36407665  -0.09700951   3.67049898
 H   11.63573071  -1.13228958   3.89390539
 H   11.47208274   0.02558129   2.58893498
 C   12.30716790   0.84305765   4.40317724
 H   12.04949696   1.88051717   4.16837491
 H   12.16675898   0.71815342   5.48202005
 C   13.77220292   0.60831452   4.08814003
 H   14.00559232  -0.44721969   4.25200882
 H   14.39979264   1.18325229   4.77142977
 N   14.12020154   0.96415672   2.68803003
 H   15.10378601   0.79012609   2.48023087
 H   13.57031784   0.42054360   2.02421847
 H   13.92999741   1.94822704   2.49996710
 O   9.90491363  -2.78365371   2.71591216
 H   10.00945939  -3.68342497   3.04960819
