21
conf-746
 N  -5.71074313  -3.39391436  -7.16172340
 H  -6.59267328  -2.91583789  -7.35155720
 H  -5.50328109  -4.04798543  -7.91235397
 H  -4.98015266  -2.67797538  -7.11196237
 C  -5.72195875  -4.05673381  -5.84049124
 H  -6.72050953  -4.45860474  -5.63892903
 C  -5.39290944  -2.98581241  -4.80278282
 C  -4.69824167  -5.18204756  -5.77756235
 H  -4.70857132  -5.66701956  -4.80007449
 H  -4.90984529  -5.93667287  -6.53962336
 H  -3.69243769  -4.79154816  -5.95272141
 O  -4.74009175  -1.99026203  -5.11687472
 N  -5.79659125  -3.22409220  -3.54000491
 H  -6.40376335  -4.01239864  -3.36907691
 C  -5.71385390  -2.19253780  -2.51459439
 H  -5.76816049  -1.23387063  -3.04230943
 C  -4.36850926  -2.25686378  -1.78832876
 C  -6.87411015  -2.30522901  -1.51150133
 H  -6.74915724  -3.21124561  -0.91997422
 H  -6.79459934  -1.46601988  -0.81993981
 O  -4.26882016  -2.36877598  -0.57503113
 C  -8.20638460  -2.29439595  -2.19025212
 C  -8.93634098  -1.19560122  -2.54758801
 H  -8.73903455  -0.14900674  -2.37051482
 C  -8.93746285  -3.44472931  -2.66600487
 C  -10.07875955  -2.96623211  -3.33414501
 C  -8.72014624  -4.82387796  -2.57773321
 H  -7.86908162  -5.22107680  -2.03647959
 N  -10.06115433  -1.59263637  -3.24307142
 H  -10.75737830  -0.97672762  -3.61666395
 C  -10.74614009  -5.17990366  -3.87302413
 H  -11.43095750  -5.87662654  -4.34066845
 C  -10.99606760  -3.81860847  -3.95386665
 H  -11.86384392  -3.42857195  -4.47361720
 C  -9.62288497  -5.67862379  -3.18686078
 H  -9.46413239  -6.74829283  -3.13842277
 N  -3.27255170  -2.19916150  -2.58604463
 H  -3.39215205  -1.90857674  -3.54678340
 C  -1.97261197  -2.07466794  -1.96107678
 H  -1.87495989  -2.90875791  -1.26392198
 C  -1.89492190  -0.77267333  -1.15395708
 C  -0.86452097  -2.15208974  -3.02284005
 H  -1.02836412  -3.07509165  -3.58673331
 H  -0.98624578  -1.30965040  -3.71237717
 O  -2.53462410   0.23205928  -1.41525899
 C   0.56418064  -2.16617587  -2.47404813
 H   1.27584948  -2.23857787  -3.29674021
 H   0.77955270  -1.26911469  -1.89346578
 C   0.71104575  -3.43397065  -1.60076078
 O   1.10032957  -4.45146812  -2.18344147
 O   0.37941999  -3.31037461  -0.39811463
 N  -1.02293508  -0.85433296  -0.11725531
 H  -0.45071990  -1.69793714  -0.02346701
 C  -0.76481351   0.27830921   0.74203235
 H  -1.20501111   1.15196975   0.25894247
 C   0.74930802   0.43494508   0.85592782
 C  -1.42023359   0.11177567   2.12677046
 H  -0.97776426  -0.77492892   2.58553720
 O   1.46622812  -0.52563671   1.12033599
 C  -1.14245295   1.31953634   3.02014349
 H  -1.54707276   2.22502223   2.55583931
 H  -1.62520434   1.18928813   3.99120425
 H  -0.07404527   1.46313834   3.18584014
 C  -2.92604026  -0.10807188   1.96308358
 H  -3.36197080   0.72134556   1.40003960
 H  -3.14492107  -1.03020472   1.42279213
 H  -3.41077393  -0.15889975   2.93938926
 N   1.23329476   1.68559389   0.68948589
 H   0.65280789   2.39384140   0.26903878
 C   2.65180715   1.96635301   0.74287659
 H   3.15990031   1.44069226  -0.07356769
 C   3.23245764   1.51086933   2.07925267
 C   2.85939822   3.47945748   0.55858114
 H   2.43373825   3.97950483   1.43693215
 O   2.67079709   1.69645768   3.14623697
 C   4.31830351   3.85413606   0.38511663
 H   4.91385027   3.58907477   1.26073386
 H   4.72274817   3.33323047  -0.48908698
 H   4.40884818   4.92886605   0.21863490
 O   2.12060951   3.84543695  -0.60777069
 H   2.23818526   4.78842223  -0.74619025
 N   4.44346549   0.89527799   1.97172739
 H   5.01125376   1.06697016   1.15654781
 C   5.24575283   0.63440503   3.14351476
 H   4.79761331   1.17321318   3.98177371
 C   6.64110616   1.17647061   2.84734105
 C   5.27919650  -0.86297943   3.51570968
 H   5.88294723  -0.92671584   4.42778574
 O   6.99374894   1.46910321   1.71705556
 C   3.86599556  -1.35978351   3.81451034
 H   3.27562323  -1.36498026   2.89952432
 H   3.35942267  -0.72024627   4.54017042
 H   3.89434609  -2.37863488   4.20448362
 C   5.94550511  -1.71842703   2.43945560
 H   5.34194939  -1.70654529   1.52939496
 H   6.02602634  -2.75361816   2.77924929
 H   6.94432928  -1.35502434   2.19742707
 N   7.45832321   1.29454200   3.93474681
 H   7.16037183   0.82769188   4.77365986
 C   8.89619080   1.38240511   3.75602931
 H   9.07830600   1.86571300   2.79222250
 C   9.48430025  -0.01518717   3.70137876
 C   9.56347016   2.18272323   4.87494112
 H   10.64588333   2.10625763   4.75543523
 H   9.31550415   1.72795046   5.83686024
 O   8.95016540  -1.01801519   4.11107894
 C   9.15773242   3.64844031   4.85844882
 H   9.40610852   4.06264115   3.87657645
 H   8.07578099   3.74156638   4.97254984
 C   9.83906542   4.44732918   5.95599176
 H   9.61355316   3.98712388   6.92372079
 H   10.92498368   4.40097534   5.82977186
 C   9.40209543   5.89846108   6.00975513
 H   9.78726691   6.37512667   6.91285121
 H   8.31071346   5.93552987   6.06843838
 N   9.84338713   6.67277838   4.82098207
 H   9.52760342   7.64232783   4.85465636
 H   10.85993070   6.67729276   4.74005931
 H   9.47602894   6.26445518   3.96248748
 O   10.71778896  -0.00932688   3.16061273
 H   11.03084874  -0.92117805   3.19835763
