21
conf-876
 N  -4.26373048   0.10608736  -9.67078295
 H  -5.17565696   0.47928384  -9.93810113
 H  -3.82778777  -0.34726330  -10.46987764
 H  -3.68812298   0.89409066  -9.35885007
 C  -4.35881630  -0.79813317  -8.50784559
 H  -5.31229564  -1.33242032  -8.52965681
 C  -4.30249705   0.06710969  -7.24907619
 C  -3.21181343  -1.80405466  -8.49053435
 H  -3.25726309  -2.42912434  -7.59512903
 H  -3.24911417  -2.44931662  -9.37218185
 H  -2.25201379  -1.28024415  -8.49092697
 O  -3.80738587   1.18549848  -7.27475624
 N  -4.81931218  -0.50100650  -6.12418565
 H  -4.97828292  -1.49597394  -6.15855584
 C  -4.41159450  -0.04288494  -4.81018988
 H  -3.97024983   0.94388452  -4.92763088
 C  -3.35616398  -1.02018768  -4.27583866
 C  -5.58889570   0.05403394  -3.83653752
 H  -6.08302742  -0.91834724  -3.75640007
 H  -5.19925829   0.28032926  -2.83754845
 O  -3.27788797  -2.17026909  -4.67470659
 C  -6.57690465   1.11386959  -4.24279953
 C  -6.49923960   2.01099094  -5.27783168
 H  -5.73112942   2.11579548  -6.02473761
 C  -7.82245151   1.39143268  -3.56959099
 C  -8.44508716   2.45007231  -4.24913337
 C  -8.44920079   0.81904977  -2.45530928
 H  -7.98814555  -0.00114787  -1.91337127
 N  -7.62096258   2.80804025  -5.29112036
 H  -7.80080572   3.55203063  -5.93894086
 C  -10.28283481   2.38927311  -2.74917299
 H  -11.24201124   2.76224351  -2.41094751
 C  -9.68023988   2.96872547  -3.85570147
 H  -10.14306152   3.78771038  -4.39500001
 C  -9.67407218   1.32615688  -2.05651635
 H  -10.17748884   0.89996682  -1.19675485
 N  -2.55103018  -0.52936127  -3.30429553
 H  -2.64303660   0.40733657  -2.93953051
 C  -1.57367665  -1.36345848  -2.64543344
 H  -2.04792299  -2.30146923  -2.34585079
 C  -1.14847710  -0.59490775  -1.39654637
 C  -0.38132270  -1.73249486  -3.54485217
 H   0.40483450  -2.16565931  -2.91977544
 H  -0.71537030  -2.51042043  -4.23072137
 O  -1.33724793   0.60990047  -1.28648980
 C   0.18953037  -0.55460327  -4.32292875
 H  -0.47163071  -0.20833407  -5.11463581
 H   0.38185720   0.29525679  -3.65879881
 C   1.56453016  -0.89575479  -4.96792883
 O   1.78187288  -0.33586309  -6.05497443
 O   2.31987920  -1.62316169  -4.29450846
 N  -0.54061579  -1.33271158  -0.44304003
 H  -0.23938999  -2.26883443  -0.65736139
 C  -0.14310837  -0.74124674   0.82467463
 H  -0.73798177   0.17342990   0.90863659
 C   1.33831311  -0.36677385   0.71643724
 C  -0.43989728  -1.63323380   2.03758320
 H   0.28501971  -2.44775460   2.02647634
 O   2.23289153  -0.95848083   1.32044289
 C  -0.28039432  -0.83105255   3.33276740
 H  -1.00593596  -0.01468630   3.34791440
 H  -0.45777186  -1.46387973   4.20487973
 H   0.71589989  -0.39945810   3.42654144
 C  -1.85252267  -2.21356110   1.98799611
 H  -2.58994062  -1.40591245   1.98720591
 H  -2.01296648  -2.83321583   1.10639731
 H  -2.03021829  -2.83110424   2.87149715
 N   1.60770887   0.63929753  -0.15050789
 H   0.85663672   1.13835207  -0.60411032
 C   2.93470369   1.21331644  -0.20614647
 H   3.65041648   0.39137178  -0.19023009
 C   3.18796604   2.10579552   1.00528340
 C   3.10008730   2.03701556  -1.49228556
 H   4.00818510   2.64544483  -1.40974232
 O   2.44903635   3.04949434   1.28124289
 C   3.19898253   1.13194538  -2.69936125
 H   4.14931355   0.59183350  -2.69673343
 H   2.40099469   0.39047407  -2.68354650
 H   3.12014695   1.71220462  -3.61996380
 O   1.96971335   2.88105144  -1.67488443
 H   1.93248299   3.47215790  -0.91069902
 N   4.27103506   1.77577728   1.74024458
 H   4.87741313   1.02131160   1.45876506
 C   4.65981974   2.52939029   2.92262575
 H   4.13772337   3.48629950   2.87827501
 C   6.16607884   2.71429427   2.83753028
 C   4.27624865   1.80461810   4.22646521
 H   4.84948266   0.87576769   4.24158520
 O   6.90909539   1.74848329   2.73635145
 C   4.65343513   2.63094485   5.45722847
 H   4.11775880   3.58520112   5.44065934
 H   5.72664612   2.83046211   5.50098787
 H   4.37247691   2.09889562   6.36853668
 C   2.78749376   1.46416497   4.23921878
 H   2.19156247   2.35662473   4.04029796
 H   2.51080081   1.06924828   5.21804972
 H   2.54102592   0.71105910   3.49231841
 N   6.61703735   3.99697606   2.84541944
 H   5.98383781   4.73183717   3.11176032
 C   8.03881199   4.26921638   2.95932098
 H   8.56640352   3.50926846   2.38236742
 C   8.52535939   4.14902877   4.38523229
 C   8.35207383   5.65970937   2.39671263
 H   7.81396635   6.41018219   2.97251863
 H   7.95092388   5.68784377   1.38209712
 O   9.61415776   3.74923445   4.71699004
 C   9.84171126   5.96855907   2.36276045
 H   10.24652735   5.96867483   3.37694386
 H   10.35962145   5.16244452   1.83153503
 C   10.16809803   7.29656243   1.68897896
 H   11.25098448   7.44962454   1.70424932
 H   9.87475428   7.25416866   0.63471399
 C   9.49197911   8.50276172   2.32370525
 H   8.41472789   8.46150594   2.13605970
 H   9.85792139   9.41902438   1.85804800
 N   9.72553534   8.56232988   3.78816737
 H   9.48021683   9.47043439   4.18310449
 H   9.15821238   7.85842031   4.26163553
 H   10.69980734   8.35996194   4.00838825
 O   7.61986439   4.59960622   5.28577407
 H   8.03801652   4.50903534   6.14959660
