83
85
N         -1.97775        3.03982        2.32775
H         -1.70483        4.01972        2.40277
H         -1.69929        2.53217        3.17625
H         -1.41928        2.57919        1.57204
C         -3.43434        2.82151        2.05265
H         -3.98470        3.33605        2.84925
C         -3.58036        1.29090        2.25658
C         -3.85634        3.38475        0.67412
H         -3.64550        2.62108       -0.08235
O         -2.79074        0.72005        3.00578
C         -5.35799        3.71856        0.69191
H         -5.54813        4.58732        1.33335
H         -5.99057        2.90651        1.06944
H         -5.70214        3.96590       -0.31632
C         -3.05270        4.63239        0.27201
H         -3.08127        5.40580        1.05208
H         -2.01662        4.39464        0.01135
H         -3.50021        5.07116       -0.62491
N         -4.55182        0.64005        1.57873
H         -5.13303        1.15273        0.93121
C         -4.52768       -0.82689        1.47471
H         -4.41744       -1.23806        2.47898
C         -3.25728       -1.25674        0.70917
C         -5.81132       -1.32777        0.81672
H         -5.78244       -2.41739        0.73564
H         -6.68501       -1.04889        1.41366
H         -5.92942       -0.92138       -0.19471
O         -2.48364       -2.09565        1.14649
N         -3.05391       -0.60994       -0.48199
H         -3.61179        0.21145       -0.68545
C         -1.69885       -0.48310       -1.00951
H         -1.27225       -1.47955       -1.15025
C         -0.91975        0.30740        0.04291
C         -1.77193        0.24323       -2.36831
H         -0.76042        0.38015       -2.75663
H         -2.34703       -0.39832       -3.04418
O         -1.28867        1.46464        0.31326
O         -2.45965        1.48256       -2.28620
H         -1.81562        2.16079       -1.98794
N          0.09253       -0.29083        0.69230
H          0.19439       -1.29026        0.57037
C          0.66024        0.30264        1.91238
H         -0.12256        0.33830        2.67527
C          1.03185        1.77191        1.65608
C          1.83838       -0.53152        2.42580
H          2.20208       -0.03686        3.33494
H          2.65902       -0.49554        1.69777
O          0.67368        2.65065        2.44451
C          1.49763       -1.99935        2.75642
H          1.27813       -2.53129        1.81646
C          2.72720       -2.67659        3.37480
H          2.97723       -2.21695        4.33881
H          3.60473       -2.59049        2.72372
H          2.53935       -3.74072        3.55045
C          0.27097       -2.12760        3.66936
H          0.40782       -1.54211        4.58750
H         -0.65204       -1.79600        3.18268
H          0.12444       -3.17250        3.96160
N          1.73096        2.01885        0.51659
H          1.81445        1.22627       -0.11784
C          1.43519        3.23326       -0.25023
H          0.90192        3.92123        0.40602
C          0.52805        2.79692       -1.41816
C          2.70180        3.91611       -0.79775
H          3.36003        3.14793       -1.22273
H          3.24367        4.36774        0.03854
O         -0.44317        3.57406       -1.72582
C          2.36940        4.97843       -1.86942
H          1.39131        5.42285       -1.65719
H          3.10732        5.78815       -1.84110
C          2.34590        4.36900       -3.28255
H          1.85081        3.39800       -3.29663
H          3.37023        4.20090       -3.63263
N          1.68297        5.21748       -4.28163
H          2.15464        6.06880       -4.55758
N         -0.38600        4.13591       -4.32738
H         -1.17877        3.85637       -4.88835
H         -0.39275        3.83522       -3.30993
N          0.16687        5.71615       -5.94285
H          0.89445        6.02876       -6.56941
H         -0.77165        5.68973       -6.31276
C          0.47962        5.00182       -4.83216
O          0.85234        1.74799       -2.00910
