21
conf-549
 N  -2.20553956  -3.69043143   2.46796737
 H  -3.02535521  -3.07917312   2.46613700
 H  -2.23496958  -4.26118351   1.61957002
 H  -2.25804119  -4.30289601   3.28002465
 C  -0.94149910  -2.91194571   2.46110978
 H  -0.97665191  -2.15467608   3.25200395
 C  -0.82394864  -2.23479328   1.09945901
 C   0.24749792  -3.84223483   2.68579078
 H   0.02847191  -4.43323793   3.57876346
 H   0.28735235  -4.52902662   1.83953507
 O  -0.72457619  -2.92013592   0.07509592
 C   1.57470220  -3.15632179   2.85610915
 C   2.11498116  -2.70262253   4.03213780
 H   1.69986856  -2.68211020   5.02591961
 C   2.58222160  -2.93377912   1.84191565
 C   3.70878971  -2.38644271   2.47418637
 C   2.62088440  -3.16874699   0.46015746
 H   1.72922041  -3.50671083  -0.06235738
 N   3.39431685  -2.23168226   3.80400666
 H   3.98059949  -1.79768826   4.49109175
 C   4.92239870  -2.39048371   0.42768069
 H   5.81386239  -2.16874659  -0.14701299
 C   4.88745679  -2.09364941   1.78477725
 H   5.71712303  -1.60285766   2.28517617
 C   3.79668545  -2.91315078  -0.22646285
 H   3.84343748  -3.08607564  -1.29596234
 N  -0.92778290  -0.88108155   1.13500418
 H  -1.00476481  -0.46330191   2.04468636
 C  -0.67849428   0.03870425   0.02520149
 H  -0.98517099   1.01420115   0.40806130
 C   0.83095320   0.06903895  -0.26042066
 C  -1.47214638  -0.23745926  -1.26310606
 H  -1.02296847  -1.11904057  -1.72766587
 O   1.33898458  -0.61155607  -1.14863052
 C  -1.31462475   0.96326604  -2.20634687
 H  -1.83527640   1.81501490  -1.75839661
 H  -0.25014794   1.23764026  -2.24458866
 C  -2.94106588  -0.51306007  -0.95266577
 H  -3.38226282   0.32337853  -0.40192317
 H  -3.51458336  -0.64981894  -1.87067101
 H  -3.04572828  -1.41994771  -0.35818348
 C  -1.81709746   0.72035602  -3.62373495
 H  -1.65741490   1.60425935  -4.24333706
 H  -2.88266346   0.48698902  -3.64667895
 H  -1.28461266  -0.11414521  -4.08889757
 N   1.55534635   0.89291907   0.53742956
 H   1.20743116   1.28228760   1.40698643
 C   2.98225677   0.82992526   0.58799622
 H   3.32416332  -0.21117481   0.40849452
 C   3.36250662   1.26832983   2.04096172
 C   3.71260491   1.78894326  -0.35033438
 H   3.33169912   2.80173103  -0.18975197
 H   4.76104157   1.78163591  -0.03939795
 O   4.55118320   1.17395406   2.36465777
 C   3.60870575   1.42959493  -1.82435651
 H   2.57837983   1.51968021  -2.16649913
 H   3.90502221   0.38758256  -1.96452996
 C   4.50163026   2.30498070  -2.68610664
 H   4.22573855   3.36025083  -2.56808206
 H   5.53830324   2.19767459  -2.35466988
 N   4.39099223   1.88333054  -4.09498994
 H   3.47098980   1.56430265  -4.36301295
 N   5.99855815   3.43255447  -4.79459071
 H   6.68659440   3.66754149  -5.49105319
 H   6.28225330   3.54435787  -3.83635470
 N   4.76201960   2.19407647  -6.35937147
 H   4.34411642   1.28842991  -6.52261948
 H   5.41288755   2.48681825  -7.07133852
 C   5.07087357   2.49975208  -5.07644150
 O   2.39355373   1.66588167   2.73784275
