21
conf-883
 N  -2.19033060  -1.81323532   2.81713957
 H  -2.82262053  -1.28222780   2.21607711
 H  -2.25085777  -2.79977707   2.55339890
 H  -2.52102017  -1.71687409   3.77787321
 C  -0.78469734  -1.34504990   2.69949706
 H  -0.76025906  -0.28903798   2.98709784
 C  -0.31543706  -1.48305931   1.24402867
 C   0.11454326  -2.13192188   3.64592826
 H  -0.39077434  -2.16215707   4.61677323
 H   0.16312674  -3.16064390   3.28602647
 O   0.31260536  -2.45473263   0.84539406
 C   1.50116475  -1.57455092   3.80609565
 C   1.98897937  -0.35467613   3.41411006
 H   1.51734366   0.48368720   2.94679162
 C   2.61211547  -2.26091038   4.41545531
 C   3.73182545  -1.41349565   4.33189062
 C   2.74558437  -3.52255278   5.01025393
 H   1.89823862  -4.19605527   5.09411854
 N   3.32988079  -0.26077163   3.70729721
 H   3.91773389   0.52338306   3.45902175
 C   5.09547901  -3.03477542   5.39722670
 H   6.05439462  -3.35716215   5.78495098
 C   4.98756037  -1.78181938   4.81135391
 H   5.83942902  -1.11550677   4.72741879
 C   3.98718514  -3.89510956   5.49750370
 H   4.11238437  -4.86632736   5.96158309
 N  -0.72477368  -0.49570420   0.40570236
 H  -1.27752391   0.27060054   0.74961740
 C  -0.31056123  -0.46036538  -0.99225209
 H  -0.64275170   0.52398175  -1.33264155
 C   1.23301562  -0.49594385  -1.06987955
 C  -0.96389448  -1.52937449  -1.90627176
 H  -0.25123677  -2.35387857  -1.99794287
 O   1.87518190  -1.27997183  -1.75678538
 C  -1.25015321  -0.94300700  -3.29610168
 H  -1.74963062  -1.72281803  -3.88181305
 H  -1.97979891  -0.13790476  -3.17316930
 C  -2.27462308  -2.08970128  -1.35367290
 H  -3.00617723  -1.29435427  -1.19289848
 H  -2.69924270  -2.79844978  -2.06698983
 H  -2.12141554  -2.62739282  -0.41797132
 C  -0.05424602  -0.43880457  -4.08828920
 H  -0.37461786  -0.14474246  -5.09106368
 H   0.70526479  -1.21775174  -4.19374190
 H   0.41690957   0.43401915  -3.62416190
 N   1.85332848   0.43619608  -0.30558541
 H   1.39383397   0.97074140   0.41263629
 C   3.27902443   0.44909615  -0.16294685
 H   3.66422374  -0.56852203  -0.02699106
 C   3.58892851   1.28790818   1.12653730
 C   4.02569540   1.09263803  -1.32983961
 H   5.09491351   0.96716180  -1.13432785
 H   3.78733583   0.51941379  -2.22370236
 O   4.77688561   1.37226620   1.44296269
 C   3.68665267   2.56333890  -1.50841767
 H   3.98380447   3.12729982  -0.61841733
 H   2.60860760   2.67529200  -1.60821783
 C   4.34909956   3.18926770  -2.72744247
 H   4.00730279   4.22125938  -2.84843697
 H   5.43064087   3.23315895  -2.59039151
 N   4.13972140   2.45995742  -3.99355603
 H   4.82662525   1.75101210  -4.20794675
 N   1.84233019   2.89806161  -4.05102875
 H   1.07560809   3.06591836  -4.68397069
 H   2.00531290   3.65985849  -3.40972443
 N   2.81650210   1.46643502  -5.62854993
 H   3.65652064   1.27186251  -6.15834219
 H   1.99376847   1.59082010  -6.20155284
 C   2.94472319   2.30070440  -4.56064946
 O   2.59953760   1.80970042   1.66619289
