21
conf-234
 N  -2.47760230  -2.03047328   3.04723944
 H  -2.99762310  -1.23348703   2.67639523
 H  -2.78819090  -2.87312564   2.55545938
 H  -2.71361031  -2.12616447   4.03523823
 C  -1.01105134  -1.86637972   2.86993221
 H  -0.70824227  -0.94402903   3.37422417
 C  -0.68855750  -1.75005329   1.37446675
 C  -0.27798693  -3.04044564   3.50954449
 H  -0.66673470  -3.14511315   4.52686916
 H  -0.56735865  -3.94397790   2.97015308
 O  -0.41684678  -2.72698080   0.68839049
 C   1.21858259  -2.92182975   3.53653033
 C   2.00441781  -1.83181364   3.27453233
 H   1.73702567  -0.81685658   3.05705577
 C   2.13088072  -3.99917151   3.82502576
 C   3.43523381  -3.49965348   3.67992651
 C   1.93871854  -5.34129240   4.17514521
 H   0.94133023  -5.75209682   4.29813372
 N   3.34007604  -2.17121136   3.33314783
 H   4.10612760  -1.57655646   3.03901542
 C   4.35188852  -5.62182781   4.21156310
 H   5.20500922  -6.27172043   4.36514720
 C   4.56407641  -4.29562465   3.86313386
 H   5.56393278  -3.89290057   3.73832425
 C   3.05372966  -6.13941100   4.36816993
 H   2.92872248  -7.18075917   4.64042977
 N  -0.79922548  -0.49935130   0.85151648
 H  -1.11488973   0.25751941   1.43363938
 C  -0.49731492  -0.20102776  -0.54561686
 H  -0.62853593   0.87997072  -0.61429951
 C   0.98732300  -0.53413542  -0.80310011
 C  -1.45471447  -0.84603409  -1.56967312
 H  -1.26941599  -1.91953327  -1.56058588
 O   1.38385417  -1.33275998  -1.64386933
 C  -1.19808717  -0.34539548  -3.00671661
 H  -0.31621179  -0.83949364  -3.42149636
 H  -2.04235808  -0.68108160  -3.62077898
 C  -2.91848119  -0.60810427  -1.19284296
 H  -3.15975464   0.45770545  -1.19293384
 H  -3.56880078  -1.10082403  -1.91969676
 H  -3.16061362  -1.02105451  -0.21204960
 C  -1.04908034   1.16763527  -3.13869741
 H  -1.12083466   1.47448078  -4.18322970
 H  -0.07846920   1.50713386  -2.76700373
 H  -1.82171529   1.69686680  -2.57776909
 N   1.84327841   0.15170505  -0.00065663
 H   1.53466510   0.66125264   0.81089220
 C   3.26754829  -0.03745370  -0.03668903
 H   3.50447534  -1.00919538  -0.47932495
 C   3.76589570   0.02026085   1.44152141
 C   4.02222901   1.06087471  -0.78081110
 H   3.76601365   2.02800614  -0.34323875
 H   5.08589552   0.89274098  -0.59185869
 O   3.07338353   0.68550523   2.22064600
 C   3.74379644   1.06922647  -2.27768059
 H   2.68564918   1.24763636  -2.45775575
 H   3.96973837   0.08624971  -2.69404461
 C   4.55639490   2.12828071  -3.00392351
 H   4.27842717   3.11529649  -2.62860467
 H   5.62313290   2.00103117  -2.80012176
 N   4.34034199   2.17360739  -4.46236421
 H   3.49079611   2.63303110  -4.75638966
 N   5.72079336   0.33915123  -4.88583930
 H   5.83852322  -0.50232331  -5.42867912
 H   5.83174696   0.21927482  -3.88996220
 N   4.37161015   1.22330381  -6.58809765
 H   3.98698240   2.09454061  -6.93452857
 H   4.97840323   0.76218763  -7.25302658
 C   4.81059142   1.24279887  -5.30106003
 O   4.83230882  -0.56903154   1.67102057
