21
conf-474
 N  -1.63952255  -3.09074667   2.08421198
 H  -2.60646002  -3.27079998   1.80769758
 H  -1.02889431  -3.64342856   1.47808625
 H  -1.49976997  -3.37405722   3.05612542
 C  -1.27547903  -1.67522449   1.91033470
 H  -2.05502726  -1.04256692   2.34070295
 C  -1.13651988  -1.36399720   0.42075862
 C   0.05880726  -1.37292769   2.60660537
 H   0.82213080  -2.01343107   2.15611719
 H   0.34791014  -0.33813157   2.40524420
 O  -0.73227848  -2.19878592  -0.37031024
 C   0.01479349  -1.60523352   4.09004291
 C  -0.40353024  -0.72754003   5.05384134
 H  -0.75706388   0.28764378   4.96368370
 C   0.38464608  -2.81703862   4.78021330
 C   0.15342157  -2.60900406   6.15036173
 C   0.88284536  -4.04943063   4.34686684
 H   1.06522915  -4.23359211   3.29270918
 N  -0.33066012  -1.32937885   6.29318477
 H  -0.58003356  -0.89685347   7.16224366
 C   0.89309355  -4.80881730   6.65379837
 H   1.09787066  -5.59978654   7.36504509
 C   0.39917733  -3.59593139   7.10881073
 H   0.21076828  -3.41521237   8.16108146
 C   1.13562386  -5.03478670   5.28691680
 H   1.52011294  -5.99529011   4.96768612
 N  -1.44695313  -0.09157654   0.06173995
 H  -1.81059600   0.53886501   0.75588392
 C  -1.17111836   0.42714945  -1.27298106
 H  -1.40037070   1.49490011  -1.20086074
 C   0.33461544   0.26617019  -1.57868078
 C  -2.04594392  -0.17088907  -2.40243621
 H  -1.59350335  -1.12482033  -2.68337920
 O   0.77564717  -0.26314291  -2.58909521
 C  -2.01540259   0.78431308  -3.60554152
 H  -2.62356674   1.65704841  -3.34816337
 H  -0.99442843   1.15467210  -3.74614892
 C  -3.48587591  -0.40623892  -1.94966796
 H  -3.92449725   0.51961242  -1.56487473
 H  -4.10106893  -0.73662895  -2.78809448
 H  -3.54958969  -1.17202073  -1.17658089
 C  -2.51118448   0.15800606  -4.90339536
 H  -2.46744229   0.87976738  -5.72053585
 H  -3.54072953  -0.19360887  -4.82393902
 H  -1.89055734  -0.69920669  -5.18095448
 N   1.15981815   0.74683014  -0.61761838
 H   0.84742435   1.14186570   0.25363698
 C   2.58610493   0.67257921  -0.73158247
 H   2.89340103  -0.29259202  -1.13996604
 C   3.13577071   0.80712222   0.72650643
 C   3.17809893   1.78761162  -1.60705116
 H   2.92942445   1.54858677  -2.64156601
 H   2.69458408   2.74211957  -1.37403020
 O   4.23712571   0.27946551   0.92877181
 C   4.69683370   1.93392370  -1.43347792
 H   5.13308662   2.26375619  -2.38112738
 H   5.14129469   0.96231972  -1.20736456
 C   5.06789010   2.96386255  -0.36707395
 H   4.83751911   3.95892328  -0.75652069
 H   4.47390072   2.85645432   0.54258635
 N   6.50238585   2.94719395  -0.03859023
 H   7.12423088   3.06576194  -0.82378660
 N   6.33766022   1.70857803   1.94951505
 H   6.83409163   1.25345089   2.70245634
 H   5.48249298   1.22574147   1.65531599
 N   8.42057592   2.43742951   1.08878599
 H   8.79148380   3.30213258   0.71119111
 H   8.83409056   2.18208394   1.97607801
 C   7.05774804   2.33587046   1.02127283
 O   2.43245122   1.44567981   1.51926471
