21
conf-197
 N   0.38042001  -0.53341686   4.42719157
 H   1.31226247  -0.81096064   4.10632176
 H   0.38491889   0.47844187   4.58228641
 H   0.18772415  -0.99807747   5.31354133
 C  -0.66158273  -0.83686068   3.41820852
 H  -0.54823868  -1.86881114   3.07286823
 C  -0.46378012   0.10448066   2.24391297
 C  -2.05822790  -0.63964736   4.01364008
 H  -2.16345392  -1.33639547   4.84855392
 H  -2.09154411   0.36517484   4.43299393
 O  -0.36643721   1.32263048   2.42538951
 C  -3.19277918  -0.79726294   3.03477639
 C  -3.59706854  -1.93235790   2.39073111
 H  -3.19732205  -2.93294288   2.43884414
 C  -4.07705364   0.25474399   2.58970266
 C  -5.00679017  -0.31496336   1.71314048
 C  -4.13276957   1.62776728   2.85847551
 H  -3.39389882   2.09502728   3.49777638
 N  -4.68724311  -1.64520494   1.59174236
 H  -5.18078489  -2.30343302   1.02077286
 C  -6.07635147   1.78445016   1.41090875
 H  -6.84414419   2.39938890   0.95771905
 C  -6.02782665   0.42776051   1.11618829
 H  -6.73496593  -0.03444900   0.43547842
 C  -5.13679725   2.37739243   2.26973674
 H  -5.19693574   3.43955144   2.47146772
 N  -0.43887195  -0.45772208   1.02469622
 H  -0.35891594  -1.45691788   0.94573997
 C  -0.25429961   0.33748142  -0.17610654
 H  -0.68599532   1.31146621   0.05183042
 C   1.23932810   0.57221283  -0.43794892
 C  -0.99771275  -0.27062793  -1.36809537
 H  -0.68941535   0.32882896  -2.23014909
 O   1.80726342   0.23378850  -1.46656363
 C  -2.51478270  -0.13592472  -1.20255614
 H  -2.97413109  -0.43618531  -2.14695084
 H  -2.85304571  -0.86050830  -0.45780453
 C  -0.65289548  -1.73725910  -1.61483414
 H  -1.04872722  -2.36511295  -0.81312703
 H  -1.11355046  -2.06918293  -2.54820240
 H   0.42221278  -1.89505425  -1.68721899
 C  -3.00981500   1.24960091  -0.82148626
 H  -4.10246472   1.29717196  -0.90183202
 H  -2.59160118   2.01712267  -1.47969993
 H  -2.75768425   1.51024360   0.21518824
 N   1.91379278   1.16574595   0.57935256
 H   1.41666793   1.60002056   1.34768147
 C   3.30865306   1.47245027   0.44764125
 H   3.83110771   0.61142186   0.02502305
 C   3.81507945   1.77564441   1.88914978
 C   3.57929348   2.71425808  -0.38352165
 H   3.18104512   2.55552065  -1.38375287
 H   3.04430661   3.55160416   0.07781212
 O   4.63039810   0.97947402   2.37682842
 C   5.07825947   2.98033103  -0.38307225
 H   5.58792369   2.20295439  -0.95681370
 H   5.43625445   2.89764744   0.64651567
 C   5.46013121   4.33884166  -0.93572324
 H   4.98883721   5.13438994  -0.34479276
 H   6.54227740   4.46598335  -0.85092754
 N   5.06397960   4.42994015  -2.35416289
 H   4.21810588   3.92204635  -2.57354806
 N   5.95717199   6.57989246  -2.57645665
 H   6.31311762   7.27587806  -3.21159346
 H   6.50593536   6.41930542  -1.74845663
 N   4.63584711   5.65230010  -4.27879288
 H   4.40282587   4.78858759  -4.75087600
 H   4.95911981   6.38514790  -4.89142336
 C   5.23938651   5.55111412  -3.06825840
 O   3.32102121   2.79232704   2.41052537
