21
conf-879
 N  -2.05349981  -3.59466748   2.77326146
 H  -3.04081987  -3.33321481   2.78935095
 H  -1.89323368  -4.17660335   1.94717088
 H  -1.81343061  -4.11255709   3.61834469
 C  -1.17756370  -2.42103147   2.63116444
 H  -1.51764499  -1.61996648   3.29663436
 C  -1.21668356  -1.97978379   1.17315931
 C   0.27120810  -2.80423326   2.98121995
 H   0.56473950  -3.59508879   2.28629967
 H   0.92585504  -1.94921235   2.81200498
 O  -1.29177198  -2.83406650   0.29617682
 C   0.39164575  -3.29201882   4.39212855
 C   0.19787065  -4.57538273   4.82918918
 H   0.02722269  -5.47806390   4.26665492
 C   0.62324200  -2.49559038   5.56585803
 C   0.51559748  -3.34190078   6.67935617
 C   0.91925544  -1.13965934   5.76900246
 H   1.07135220  -0.46995660   4.91823762
 N   0.27317704  -4.61097243   6.20410052
 H   0.11356515  -5.42064889   6.77175236
 C   0.92445208  -1.52972647   8.16113587
 H   1.03747688  -1.13486192   9.16394832
 C   0.65487380  -2.87967040   7.99070897
 H   0.55706910  -3.55182522   8.83588359
 C   1.06313330  -0.66464160   7.06180699
 H   1.28898292   0.38167753   7.22922806
 N  -1.12475787  -0.63974565   0.95150820
 H  -0.85859457  -0.11218304   1.77539287
 C  -0.55124398  -0.03866148  -0.27056598
 H  -0.91669095   0.99360010  -0.28053543
 C   0.94948492  -0.01434285  -0.01079683
 C  -0.96735424  -0.67897778  -1.59007843
 H  -0.56873476  -1.69108206  -1.62701618
 O   1.64305050  -1.01994335  -0.05171791
 C  -0.43943562   0.08913625  -2.80932172
 H  -0.91318001  -0.36719399  -3.68595510
 H  -0.81073520   1.11705114  -2.76318335
 C  -2.49591259  -0.70316273  -1.67844433
 H  -2.88431026   0.31841979  -1.69167993
 H  -2.80666185  -1.20265375  -2.59856323
 H  -2.94183763  -1.23238699  -0.84000937
 C   1.07037328   0.07490076  -3.01023717
 H   1.31541077   0.32603697  -4.04453319
 H   1.48479838  -0.91104505  -2.79273150
 H   1.57824612   0.80105515  -2.37451085
 N   1.46041443   1.20226128   0.36512899
 H   0.76045382   1.89200929   0.58463670
 C   2.52187377   1.14962777   1.35471815
 H   3.20491865   0.35577035   1.05772162
 C   1.96386113   0.76984756   2.77008876
 C   3.26815804   2.47008618   1.49486151
 H   4.15648883   2.27097264   2.09548119
 H   3.60108002   2.78445733   0.50283467
 O   2.82450499   0.64677138   3.64444815
 C   2.40693356   3.54253436   2.14115146
 H   2.01931408   3.16250287   3.08974704
 H   1.53739977   3.75460590   1.50890450
 C   3.12522887   4.86802960   2.36378063
 H   3.48897254   5.26979278   1.41383669
 H   2.40822254   5.59216416   2.75420188
 N   4.22730579   4.80839833   3.34180901
 H   3.95820023   4.63422346   4.29909350
 N   5.94859405   4.40634353   1.80079441
 H   6.91465500   4.57277567   1.56575559
 H   5.28696619   4.54115775   1.05233643
 N   6.39728446   4.53969796   4.09837281
 H   6.14853110   5.01373956   4.95731115
 H   7.38267672   4.55648155   3.87976928
 C   5.52186855   4.61564116   3.06450160
 O   0.73219560   0.62888588   2.88863439
