21
conf-204
 N  -1.44145363  -3.97108707   2.24702499
 H  -2.43937539  -3.96852465   2.02930858
 H  -0.94927622  -4.38462604   1.44920455
 H  -1.25869277  -4.51210337   3.09461467
 C  -0.91889862  -2.60500351   2.40412819
 H  -1.62848587  -2.00437122   2.98091774
 C  -0.71495273  -1.99517170   1.02055094
 C   0.41317553  -2.62883890   3.16381854
 H   1.11036019  -3.26497677   2.61378933
 H   0.83765779  -1.62420658   3.19488841
 O  -0.52268308  -2.70014574   0.04197374
 C   0.22918532  -3.15485943   4.55541339
 C   0.43641072  -4.43916428   4.97025947
 H   0.83419209  -5.27912437   4.42238851
 C  -0.31816681  -2.44194218   5.68105946
 C  -0.42716406  -3.35660266   6.73943686
 C  -0.73034036  -1.11654037   5.87036883
 H  -0.65207706  -0.38133402   5.07329530
 N   0.04779055  -4.56699740   6.28567615
 H   0.07135690  -5.41601552   6.81619902
 C  -1.34361970  -1.68502622   8.15277318
 H  -1.74703856  -1.36789855   9.10698134
 C  -0.94089478  -3.00133263   7.98887488
 H  -1.01785307  -3.72627493   8.79161537
 C  -1.23657639  -0.75158739   7.10596335
 H  -1.55866808   0.26941453   7.27188799
 N  -0.73547913  -0.63421932   0.99567562
 H  -0.88004785  -0.15873796   1.86804795
 C  -0.43809091   0.20661536  -0.16326861
 H  -0.74544718   1.21027414   0.13999949
 C   1.07100874   0.25041324  -0.40271187
 C  -1.21171624  -0.14249270  -1.44226670
 H  -0.95897325  -1.16280478  -1.72381468
 O   1.66518131  -0.54229021  -1.12785939
 C  -0.80268550   0.76713984  -2.61805544
 H   0.18272300   0.45237957  -2.98158607
 H  -1.50039392   0.57808868  -3.44117870
 C  -2.71659797  -0.06252770  -1.18938602
 H  -3.01804656   0.95912380  -0.94649806
 H  -3.26083231  -0.36826982  -2.08627362
 H  -3.02415599  -0.71494796  -0.37073035
 C  -0.77863263   2.25962797  -2.30225820
 H  -0.59193179   2.84386073  -3.20479549
 H   0.00803380   2.50467040  -1.58548351
 H  -1.72635559   2.59391928  -1.87383234
 N   1.73093051   1.24350966   0.24016086
 H   1.39246213   1.75698743   1.04522775
 C   3.15055855   1.39477419   0.09033642
 H   3.63425410   0.40974394   0.15560896
 C   3.59563686   2.28345191   1.28440128
 C   3.50766178   2.03782971  -1.25092571
 H   2.88883532   1.54390101  -1.99827565
 H   3.19967959   3.08571799  -1.24606899
 O   4.79528762   2.57241970   1.35821653
 C   4.96912956   1.89801942  -1.64489121
 H   5.25219339   0.83915201  -1.59962302
 H   5.60853297   2.42136125  -0.93025788
 C   5.21944297   2.39830989  -3.06433603
 H   6.28350463   2.36317652  -3.29709796
 H   4.71492544   1.75783145  -3.79126907
 N   4.79656547   3.80127263  -3.26805645
 H   5.33600446   4.43418961  -2.69131533
 N   2.59978917   3.34245216  -3.97228184
 H   1.62400742   3.45141275  -3.74872852
 H   2.88215785   2.40170408  -4.18640294
 N   3.07103734   5.35408302  -2.89995200
 H   3.77726312   6.04574190  -2.68533963
 H   2.25431566   5.75212795  -3.34382917
 C   3.50426194   4.15840840  -3.38975157
 O   2.67641772   2.60568128   2.06803144
