21
conf-353
 N  -0.27927501  -4.11813756   2.25536986
 H  -0.74790821  -4.64028754   1.51541545
 H   0.72103360  -4.13593382   2.05074249
 H  -0.43913965  -4.56725087   3.15681417
 C  -0.74570515  -2.72387115   2.29678597
 H  -1.83812157  -2.70222784   2.38307951
 C  -0.32940655  -2.00802031   1.00898405
 C  -0.15809656  -1.99969303   3.50211903
 H   0.93303429  -2.01485637   3.41084564
 H  -0.45937811  -0.94758158   3.46609948
 O   0.45423881  -2.50524749   0.22280337
 C  -0.55116638  -2.59701432   4.81646505
 C  -1.57562423  -3.45995096   5.10646974
 H  -2.33585525  -3.87727238   4.46857902
 C   0.13759970  -2.35024945   6.05674128
 C  -0.49516986  -3.11567928   7.04728224
 C   1.24112076  -1.55074668   6.38743806
 H   1.73705103  -0.93539286   5.64310993
 N  -1.53844040  -3.77989037   6.44625481
 H  -2.15993324  -4.41746881   6.90736653
 C   1.03291854  -2.33141326   8.68395126
 H   1.40250748  -2.30851000   9.70192061
 C  -0.06248043  -3.12329194   8.37579676
 H  -0.56344946  -3.72288916   9.12769622
 C   1.67523908  -1.55276385   7.70208265
 H   2.52711318  -0.94613432   7.98663378
 N  -0.88015445  -0.77948237   0.82799052
 H  -1.54888474  -0.43534759   1.49666073
 C  -0.52865126   0.06612873  -0.30503177
 H  -1.02060603   1.02116407  -0.09218173
 C   0.99758120   0.29847052  -0.31521597
 C  -1.03191485  -0.43900679  -1.68195419
 H  -0.31405948  -1.18687316  -2.02668564
 O   1.71262184   0.09264612  -1.28676076
 C  -1.04765588   0.74255114  -2.66310659
 H  -1.87630943   1.39769368  -2.37695165
 H  -0.13311785   1.32987334  -2.53107494
 C  -2.41872492  -1.07359056  -1.59376252
 H  -3.13734739  -0.37118635  -1.16010099
 H  -2.77945556  -1.33853360  -2.58872385
 H  -2.41428182  -1.98671890  -0.99649638
 C  -1.17839561   0.33199126  -4.12500577
 H  -1.16736348   1.21013202  -4.77264332
 H  -2.10328126  -0.21292390  -4.31883794
 H  -0.34617688  -0.31307268  -4.42215269
 N   1.50926063   0.76387730   0.85406547
 H   1.03977980   0.67861893   1.74376352
 C   2.92301519   0.91564335   1.03159264
 H   3.45531906   0.04079425   0.63951914
 C   3.15587113   0.98114599   2.57438410
 C   3.52775541   2.16023276   0.38312146
 H   4.60999291   2.10805312   0.53655607
 H   3.34949114   2.08944140  -0.68962719
 O   4.31397951   1.18730721   2.94623107
 C   2.98823548   3.47722073   0.93284930
 H   3.24200941   3.57484085   1.99020499
 H   1.90402322   3.50264228   0.86261401
 C   3.55537723   4.66007811   0.16661275
 H   4.64045144   4.68560198   0.28847858
 H   3.35429588   4.54715707  -0.90710944
 N   3.06199459   5.95808405   0.66021050
 H   3.76862428   6.63196691   0.90788503
 N   0.96319783   5.69642046  -0.32210884
 H   0.21408825   6.16407446  -0.80889490
 H   1.31973182   4.87518821  -0.78786812
 N   1.55396490   7.73412584   0.68747770
 H   2.08446048   8.10728698   1.46657441
 H   0.56365441   7.92791346   0.76357815
 C   1.86573444   6.45613068   0.33302735
 O   2.14018299   0.78213122   3.28188297
