21
conf-197
 N  -6.93338353  -0.29343978   3.91490480
 H  -7.71612646  -0.92966593   3.85513541
 H  -6.97320224   0.15470580   4.82922883
 C  -7.05894073   0.74635686   2.89655916
 H  -7.31614323   0.26773015   1.94555923
 C  -5.71566060   1.43113746   2.65551395
 C  -8.11963136   1.82268975   3.18055516
 H  -8.20307894   2.48585296   2.31614106
 H  -9.09144754   1.34605177   3.33262667
 O  -5.62436771   2.42825678   1.94117571
 C  -7.79987917   2.62548554   4.43115218
 N  -8.19687236   3.92209117   4.40329150
 H  -7.98824309   4.49874833   5.20027265
 H  -8.58925975   4.33405130   3.57817248
 O  -7.26211478   2.11680853   5.40537502
 N  -4.66692988   0.86322785   3.26795109
 H  -4.83570572  -0.00969066   3.73731385
 C  -3.33488948   1.42174712   3.14394326
 H  -3.47541184   2.50235318   3.03974195
 C  -2.72865283   0.86433303   1.85185652
 C  -2.46929414   1.15589733   4.38472624
 H  -2.30212725   0.07595552   4.42872459
 O  -1.93538804  -0.07936274   1.83711543
 C  -3.19921779   1.58856612   5.65995779
 H  -4.22866838   1.22490314   5.64003016
 H  -3.25951570   2.68215915   5.65753033
 C  -1.13052072   1.89051206   4.27081544
 H  -1.31039355   2.96423135   4.17953659
 H  -0.50801499   1.72269351   5.14972546
 H  -0.56538396   1.56581896   3.39639024
 C  -2.53755015   1.10313129   6.94333171
 H  -3.11432180   1.41559577   7.81565677
 H  -2.47195641   0.01145079   6.96146328
 H  -1.52626722   1.49604965   7.05761171
 N  -3.16163744   1.44969964   0.71280530
 H  -3.89581843   2.14529514   0.75926517
 C  -2.62020962   1.04923085  -0.56991330
 H  -2.69197175  -0.04164186  -0.63644618
 C  -1.14039457   1.43869922  -0.64054465
 C  -3.38991022   1.71695257  -1.69701903
 H  -3.00342605   1.39727880  -2.66711073
 H  -4.44820186   1.45614511  -1.63984495
 H  -3.27968086   2.79903722  -1.61992746
 O  -0.74847304   2.55880078  -0.35467062
 N  -0.30302526   0.44017506  -1.03043364
 H  -0.64328780  -0.32866300  -1.58922299
 C   1.11347811   0.67281821  -1.18096621
 H   1.27191897   1.73868960  -1.35889019
 C   1.55873034  -0.15920746  -2.39172797
 C   1.89623063   0.27852879   0.08606424
 H   2.96214987   0.41503304  -0.12340633
 O   0.80807011  -0.93932193  -2.94601247
 C   1.48698161   1.10605752   1.28771020
 H   1.50314815   2.17350661   1.06298990
 H   2.15612403   0.89290746   2.12057861
 H   0.47806725   0.82848942   1.58519179
 O   1.73136272  -1.09778118   0.37708820
 H   0.78286863  -1.23412716   0.47858051
 N   2.85144903   0.00608996  -2.77355873
 H   3.37462758   0.78085840  -2.40752214
 C   3.31826810  -0.61354846  -4.00316588
 H   2.89280759  -1.62018289  -4.02996123
 C   4.84908467  -0.75574277  -4.01531812
 C   2.83485896   0.14083759  -5.23747408
 H   3.22655583   1.15897659  -5.22742882
 H   1.74929755   0.14082511  -5.26196828
 O   5.48198055  -0.83228479  -5.07296641
 O   3.33570798  -0.54582616  -6.43329084
 H   3.30962760   0.00823174  -7.22908722
 N   5.45607340  -0.80147274  -2.83244917
 H   4.96379677  -0.88715994  -1.96044859
 C   6.88460527  -0.97800837  -2.77496645
 H   7.19807809  -1.82861056  -3.38467762
 H   7.40026662  -0.10514570  -3.18420893
 C   7.26089820  -1.19866819  -1.31244024
 O   6.41263749  -1.27304763  -0.43741314
 N   8.58661929  -1.34623719  -1.07599034
 H   9.25628640  -1.08923030  -1.78622158
 C   9.09463437  -1.40468698   0.27826398
 H   8.32366474  -1.01471175   0.95061266
 C   10.32110306  -0.52187189   0.36076330
 C   9.44951280  -2.82815154   0.72645359
 H   10.22136923  -3.23813086   0.07105168
 H   9.88041618  -2.76228142   1.72704356
 O   10.92316544  -0.08087813  -0.58492049
 C   8.24251390  -3.75390858   0.75456811
 H   7.45673980  -3.29701635   1.36473761
 H   7.82793412  -3.86120239  -0.24569879
 C   8.58185548  -5.12822029   1.30889733
 H   8.98518370  -5.03272895   2.32282758
 H   9.36486803  -5.58928710   0.70121352
 C   7.38400421  -6.05437698   1.34627002
 H   6.58278354  -5.58423285   1.93603131
 H   7.00293103  -6.18353659   0.32831748
 N   7.78126625  -7.36747359   1.85187320
 H   6.99849980  -8.00854438   1.81988889
 H   8.04451718  -7.29427688   2.82747618
 O   10.68765099  -0.29968015   1.63799818
 H   11.48065763   0.24965099   1.59647528
 H   4.30655655  -0.73913703  -6.16964306
