21
conf-102
 N  -8.44152021   3.27178936   1.39397622
 H  -9.33769385   2.81122001   1.29818419
 H  -8.29729840   3.82349463   0.55390285
 C  -7.40282312   2.27139815   1.54395745
 H  -7.54560856   1.77108090   2.50363056
 C  -6.00897274   2.94255597   1.56183964
 C  -7.39852627   1.20314182   0.43681690
 H  -8.42926003   0.89649180   0.23429037
 H  -7.00545799   1.65394505  -0.48303451
 O  -5.71965874   3.91669075   0.82809927
 C  -6.60650466  -0.03207548   0.82222545
 N  -6.20898820  -0.83097984  -0.20126035
 H  -5.77489954  -1.70188392   0.04482003
 H  -6.48068980  -0.64122416  -1.14647506
 O  -6.36099307  -0.31070165   1.98925487
 N  -5.11520321   2.31648006   2.37968762
 H  -5.36219149   1.38510290   2.69561919
 C  -3.69306348   2.64890964   2.29530663
 H  -3.59931789   3.62242600   1.81740511
 C  -3.04692160   1.63142558   1.35785380
 C  -3.07714719   2.80201324   3.67569406
 H  -3.14055986   1.83847327   4.18614581
 O  -2.44316890   0.62879735   1.76313579
 C  -3.90640490   3.83823048   4.45759993
 H  -3.38366886   4.06030602   5.39212905
 H  -4.86583438   3.39561452   4.73860604
 C  -1.61144492   3.23852338   3.60069511
 H  -1.52455721   4.21712652   3.12482001
 H  -1.18631166   3.31143798   4.60408424
 H  -1.01367560   2.53500262   3.02937365
 C  -4.16250351   5.13507116   3.69086023
 H  -4.65218723   5.87080516   4.32979724
 H  -3.22585045   5.57040118   3.33046597
 H  -4.79776123   4.98460579   2.81767542
 N  -3.23974912   1.88767807   0.04170277
 H  -3.88006399   2.63357347  -0.21208859
 C  -2.84076837   0.93626311  -0.98732544
 H  -3.10006901  -0.06321752  -0.61772475
 C  -1.31863559   1.00416508  -1.17195799
 C  -3.57109475   1.24526692  -2.28242420
 H  -3.38515676   0.47182981  -3.02919362
 H  -4.64414863   1.29714957  -2.07617092
 H  -3.24241617   2.20573108  -2.68099701
 O  -0.76717128   1.79852701  -1.91984979
 N  -0.62468667   0.12470130  -0.40825182
 H  -1.11379148  -0.48322479   0.22874285
 C   0.81119380   0.19605214  -0.33521469
 H   1.08642367   1.22704716  -0.57756346
 C   1.42101903  -0.77479382  -1.33788128
 C   1.32041993  -0.12529436   1.07431188
 H   1.05473401  -1.16716521   1.30395140
 O   1.51801189  -1.96854013  -1.11622349
 C   2.81530795   0.09403415   1.18929486
 H   3.35444777  -0.50929553   0.45351369
 H   3.16081157  -0.16479743   2.18813868
 H   3.03238967   1.14798616   1.00340625
 O   0.70939307   0.75629730   2.00388002
 H  -0.23779062   0.57999065   2.01186157
 N   1.86802201  -0.20781494  -2.49448835
 H   1.91110877   0.79731451  -2.50726133
 C   2.95145509  -0.89101853  -3.19037385
 H   2.61297886  -1.90976898  -3.38010813
 C   4.21865116  -0.92034745  -2.28105323
 C   3.28485285  -0.17960460  -4.48734499
 H   3.91246937  -0.80739543  -5.11945873
 H   3.78906913   0.75802174  -4.24980332
 O   4.57410178   0.07724680  -1.61988702
 O   2.03452914   0.16018285  -5.22694993
 H   2.15018362   0.35488261  -6.17794080
 N   4.86670669  -2.12541494  -2.28655482
 H   4.57747208  -2.81954017  -2.95293312
 C   6.11988021  -2.30917747  -1.58683569
 H   6.09278485  -1.62943834  -0.73005488
 H   6.19758772  -3.33435252  -1.23322308
 C   7.33673492  -2.04169569  -2.47099518
 O   8.08377931  -2.93533162  -2.83572331
 N   7.51710177  -0.75003619  -2.83517803
 H   6.88979078  -0.02642328  -2.51192848
 C   8.67991072  -0.38257851  -3.61975740
 H   9.51765200  -1.01019168  -3.29935608
 C   9.00675589   1.06660505  -3.35122742
 C   8.44437867  -0.63529505  -5.11873834
 H   8.03797470  -1.64459556  -5.19548708
 H   7.67880181   0.05120305  -5.48677891
 O   8.22734848   1.90242820  -2.97331793
 C   9.70107437  -0.53752192  -5.96955755
 H   10.11045633   0.47151079  -5.95308286
 H   10.46669718  -1.19308623  -5.54079808
 C   9.43063777  -0.95443007  -7.40769603
 H   8.65079450  -0.30983486  -7.82869983
 H   9.03639739  -1.97737128  -7.41946781
 C   10.65921861  -0.88535705  -8.29442349
 H   11.45609490  -1.49008306  -7.85102163
 H   10.43104462  -1.32832484  -9.27402480
 N   11.14345560   0.49658925  -8.38863866
 H   10.46697433   1.06473688  -8.88713074
 H   11.99516943   0.53161760  -8.93449849
 O   10.30153765   1.33789961  -3.61539365
 H   10.41640973   2.28389113  -3.46275623
 H   1.36634232  -0.55627724  -5.13436600
