21
conf-883
 N  -7.94645942   0.95654678   5.75830986
 H  -8.72109504   0.33800853   5.95971204
 H  -8.31151659   1.76698974   5.26945823
 C  -6.98165600   0.29362653   4.90331980
 H  -6.34258474  -0.35497340   5.51261684
 C  -6.12073686   1.37041831   4.23417174
 C  -7.62737527  -0.59870023   3.83137795
 H  -8.35190172  -1.25411134   4.32817200
 H  -8.18313470   0.01339253   3.11528059
 O  -6.57192367   2.48127370   3.99608441
 C  -6.62170975  -1.48991284   3.12504262
 N  -6.98125725  -1.93419759   1.89644235
 H  -6.32853641  -2.52154368   1.40859329
 H  -7.84840989  -1.67125576   1.46588289
 O  -5.56474829  -1.81148542   3.64993342
 N  -4.86656342   0.98201369   3.90437737
 H  -4.62013740   0.00119664   3.98882436
 C  -3.98326362   1.83091225   3.12551467
 H  -4.55560063   2.69745395   2.79676854
 C  -3.52137288   1.04433209   1.91459466
 C  -2.76565169   2.31333475   3.94319396
 H  -2.25116198   1.40660833   4.28218579
 O  -3.02087064  -0.07476721   2.04806894
 C  -3.19284382   3.09725237   5.19252426
 H  -2.29332506   3.27994217   5.78848106
 H  -3.84194367   2.47177052   5.81288616
 C  -1.78165592   3.13475438   3.10114802
 H  -2.29888904   3.91844127   2.53644362
 H  -1.05135316   3.62149489   3.75287240
 H  -1.23209303   2.51034852   2.39580034
 C  -3.88155643   4.42545337   4.90278181
 H  -4.14819049   4.92928622   5.83341244
 H  -3.22474848   5.09392871   4.34094446
 H  -4.79784559   4.28649688   4.32448100
 N  -3.66149260   1.62375426   0.70246019
 H  -3.82780555   2.61603891   0.67069486
 C  -2.99936340   1.04559683  -0.46581848
 H  -3.26699696  -0.01294405  -0.49485670
 C  -1.49185100   1.17549027  -0.29712026
 C  -3.46911971   1.77158031  -1.71219666
 H  -2.99297078   1.35909699  -2.60485757
 H  -4.55138532   1.67289298  -1.81369030
 H  -3.21193436   2.82897180  -1.64155829
 O  -0.96900321   2.26578969  -0.06535567
 N  -0.78732328   0.02416776  -0.38450840
 H  -1.25548433  -0.84701875  -0.57512518
 C   0.59589528  -0.06474266   0.03307983
 H   0.99124597   0.94975225   0.06051077
 C   1.30705835  -0.94047875  -0.98282139
 C   0.71758238  -0.67849910   1.44232948
 H   0.34465940  -1.70985160   1.39104169
 O   0.90361048  -2.07427334  -1.21902067
 C   2.13633446  -0.64389203   1.96603092
 H   2.81576960  -1.19621486   1.31004634
 H   2.17276660  -1.08244705   2.96396404
 H   2.46729964   0.39568845   2.02748223
 O  -0.07763833   0.06965479   2.35740889
 H  -1.00654366  -0.12388830   2.15114651
 N   2.38617456  -0.39435442  -1.58992061
 H   2.63621871   0.56096197  -1.38823222
 C   3.11901245  -1.07032895  -2.65428185
 H   3.41013212  -2.05277208  -2.29568543
 C   4.31145743  -0.17470337  -2.96673839
 C   2.26978851  -1.21406504  -3.91315430
 H   1.37868241  -1.79388420  -3.70503274
 H   2.84080820  -1.65460889  -4.72970692
 O   4.12977948   0.94371898  -3.47437887
 O   1.83498935   0.12585665  -4.35772185
 H   1.12678444   0.42373170  -3.75262681
 N   5.52417418  -0.60281028  -2.64322654
 H   5.72209489  -1.46763690  -2.16616021
 C   6.66032971   0.25621283  -2.85974549
 H   6.76099123   0.50954019  -3.91692419
 H   6.53974803   1.20635603  -2.33156015
 C   7.89362482  -0.48945061  -2.35363662
 O   7.80627166  -1.56988150  -1.79333378
 N   9.07408530   0.13498900  -2.56745436
 H   9.10841954   1.09653723  -2.87293452
 C   10.30600861  -0.41932508  -2.04183340
 H   10.13743195  -0.75772237  -1.01523828
 C   11.32516569   0.69538853  -2.01698228
 C   10.80488343  -1.63444557  -2.83652472
 H   11.66871133  -2.04636525  -2.31141491
 H   10.01012089  -2.37983764  -2.78735383
 O   11.14442914   1.80291254  -2.45600150
 C   11.16437118  -1.34450095  -4.28410593
 H   10.31912373  -0.87525552  -4.79123193
 H   11.99231393  -0.63500247  -4.32185462
 C   11.54466495  -2.61950465  -5.01969394
 H   10.71630622  -3.33328686  -4.93492607
 H   12.41088880  -3.07790002  -4.53247189
 C   11.85100667  -2.40883538  -6.49051961
 H   11.99675628  -3.38167477  -6.96819544
 H   10.98005250  -1.93952590  -6.97173892
 N   13.08754850  -1.63864658  -6.66763514
 H   12.91835828  -0.66178153  -6.46012159
 H   13.37109784  -1.66533088  -7.63879596
 O   12.47919039   0.30667323  -1.44338336
 H   13.06494526   1.07439541  -1.46268054
 H   2.65972586   0.68249764  -4.14699617
