21
conf-84
 N  -9.26447298   1.29426752   2.97698492
 H  -10.13719205   1.67801173   2.63234384
 H  -9.11006172   1.66923330   3.90532996
 C  -8.16557675   1.68105328   2.10754512
 H  -8.21242429   1.08113468   1.19416165
 C  -6.86434642   1.35294971   2.84815281
 C  -8.13864723   3.17380528   1.72126432
 H  -9.03043548   3.40244881   1.13766884
 H  -8.14946961   3.78481494   2.62814896
 O  -6.57779996   1.95206288   3.91338711
 C  -6.93280706   3.49118529   0.84682443
 N  -5.79184237   3.82445621   1.51363626
 H  -4.95597688   3.87915906   0.95441564
 H  -5.70163820   3.59684301   2.49363544
 O  -6.99828958   3.45291681  -0.37003274
 N  -6.08512607   0.42453482   2.23854533
 H  -6.33106885   0.10912546   1.31373738
 C  -4.72950471   0.13248886   2.67589719
 H  -4.41174231   0.89663385   3.38798211
 C  -3.85602252   0.21586904   1.43573791
 C  -4.63664475  -1.24387562   3.35705590
 H  -5.07800456  -1.95937195   2.65486550
 O  -4.18789046  -0.32729384   0.38894117
 C  -5.48598136  -1.26611015   4.63710356
 H  -5.47632631  -2.28773328   5.02888332
 H  -6.52729349  -1.04095692   4.38255780
 C  -3.19236745  -1.67614913   3.62093332
 H  -2.65367381  -0.93267058   4.21726302
 H  -3.17496614  -2.62410341   4.16516125
 H  -2.64844962  -1.81639128   2.68330191
 C  -5.02262207  -0.29199812   5.71555869
 H  -5.62776361  -0.40526627   6.61758363
 H  -3.97802681  -0.45521935   5.98772178
 H  -5.13215205   0.73575946   5.36139076
 N  -2.69283029   0.88980578   1.57093022
 H  -2.39131495   1.29635070   2.44438661
 C  -1.76084944   1.02704254   0.47603108
 H  -1.63501711   0.05021061  -0.00262799
 C  -0.44131551   1.48035969   1.10610044
 C  -2.26266705   2.01834256  -0.57490580
 H  -1.54552506   2.11850494  -1.39068131
 H  -3.21078299   1.65906319  -0.97258954
 H  -2.42342628   2.99929245  -0.12044861
 O  -0.40149653   1.91271497   2.25337810
 N   0.64350040   1.40982885   0.31767486
 H   0.59999298   0.97985808  -0.59585598
 C   1.94747958   1.96579048   0.65874653
 H   1.83411620   2.96581773   1.08256094
 C   2.68820201   2.02440470  -0.66911043
 C   2.69809270   1.11852348   1.72534667
 H   2.48362582   0.06258240   1.51308426
 O   2.46885672   1.20479807  -1.55397263
 C   4.20009601   1.32119412   1.75357233
 H   4.68807503   0.94959669   0.84570331
 H   4.60177827   0.78472931   2.61411478
 H   4.43755734   2.38378091   1.87486211
 O   2.22463834   1.45823601   3.01663138
 H   1.27305544   1.64102186   2.95978312
 N   3.61337959   3.00360639  -0.80932435
 H   3.83673860   3.60242805  -0.03483961
 C   4.51825404   2.98797018  -1.94536720
 H   3.90893840   2.69458130  -2.80253316
 C   5.60312987   1.93507467  -1.71168198
 C   5.16839445   4.33404582  -2.19382888
 H   5.79572689   4.26607921  -3.08166090
 H   5.75516570   4.63122725  -1.32817159
 O   6.65027079   2.18964943  -1.13165493
 O   4.14168745   5.39321460  -2.41959415
 H   4.49971887   6.21995669  -2.80155461
 N   5.30139836   0.70466270  -2.18798042
 H   4.34178677   0.47898245  -2.42079225
 C   6.28525597  -0.35124910  -2.15744678
 H   6.74641501  -0.43009937  -1.17022616
 H   5.78291305  -1.29499840  -2.37072596
 C   7.43998848  -0.20283144  -3.16363014
 O   8.45238470  -0.87788274  -3.06304891
 N   7.24276232   0.67828066  -4.16840527
 H   6.41107233   1.24420225  -4.19494827
 C   8.30224996   0.98198297  -5.10276862
 H   9.26020973   0.88915494  -4.57714651
 C   8.12932119   2.41887806  -5.53363905
 C   8.29496969  -0.00301274  -6.28045229
 H   8.15027738  -0.99172187  -5.83819480
 H   7.42545776   0.19418813  -6.91243643
 O   7.19116612   3.11003620  -5.22858268
 C   9.57302253  -0.02253302  -7.10479288
 H   9.74493966   0.93162322  -7.59925516
 H   10.42130604  -0.18597134  -6.43029808
 C   9.53622919  -1.13558410  -8.14167801
 H   8.67620357  -0.98059728  -8.80286865
 H   9.37787530  -2.09552793  -7.63629575
 C   10.79572676  -1.22133059  -8.98296902
 H   11.66221699  -1.32172734  -8.32230004
 H   10.76174786  -2.12820214  -9.60294081
 N   10.97046283   0.00475590  -9.77014324
 H   10.23673997   0.07369632  -10.46705184
 H   11.84220265  -0.03131976  -10.28328732
 O   9.14959519   2.85642616  -6.29082139
 H   8.95202563   3.77164935  -6.52370223
 H   3.44621417   5.06824985  -3.03257512
