21
conf-123
 N  -4.23471203  -0.75860511   6.43076889
 H  -3.44155987  -1.24414529   6.83129740
 H  -5.08740296  -1.20691520   6.74336239
 C  -4.17118170  -0.86053571   4.99018228
 H  -4.55850318  -1.81715921   4.59863015
 C  -2.70426964  -0.77060658   4.55818028
 C  -5.04563698   0.22856004   4.37053002
 H  -4.70383873   1.20875599   4.70474300
 H  -4.99350560   0.21455194   3.27972815
 O  -1.79609159  -0.80899240   5.37041237
 C  -6.49816319   0.02334386   4.77568272
 N  -7.31940863   1.08648397   4.56130913
 H  -8.28233611   0.99480793   4.83310916
 H  -6.97655688   1.96341806   4.21338532
 O  -6.90257730  -1.03223207   5.23970556
 N  -2.50638884  -0.73032616   3.21855853
 H  -3.27996914  -0.53607287   2.60102201
 C  -1.22215184  -0.39981285   2.62577710
 H  -0.54646860  -0.04495600   3.40965864
 C  -1.53784516   0.70640765   1.62671977
 C  -0.57485960  -1.63003514   1.94690483
 H  -1.35657030  -2.08268208   1.32651384
 O  -2.61245989   0.73362994   1.04339684
 C  -0.15606428  -2.64645849   3.01412008
 H  -0.92496320  -2.69534884   3.78751608
 H   0.74144755  -2.25564012   3.50707561
 C   0.62025690  -1.26396761   1.06484414
 H   1.38688757  -0.75396046   1.65874002
 H   1.08037614  -2.16307280   0.65329165
 H   0.35439286  -0.62440691   0.21667680
 C   0.11515792  -4.03997794   2.46207721
 H   0.42076930  -4.71942848   3.25971750
 H  -0.78579896  -4.45069751   1.99746465
 H   0.90303032  -4.03645755   1.70738169
 N  -0.57378958   1.64465122   1.42250984
 H   0.36930139   1.40137874   1.67922315
 C  -0.68721847   2.52655657   0.26380809
 H  -1.72445977   2.86030295   0.23525054
 C  -0.38480277   1.70318358  -1.00820439
 C   0.26231957   3.70218032   0.38352204
 H   0.10047091   4.39596596  -0.44565050
 H   0.09506713   4.22632983   1.32440131
 H   1.29571434   3.35581803   0.33815198
 O   0.78508018   1.31538048  -1.24955572
 N  -1.48904727   1.38960157  -1.74401389
 H  -2.38437421   1.47820863  -1.28685297
 C  -1.42819474   0.55338944  -2.93104947
 H  -0.64403565  -0.19078610  -2.75653040
 C  -1.06642492   1.45477683  -4.11857161
 C  -2.76544444  -0.15490626  -3.14733596
 H  -3.52924029   0.60564604  -3.32515150
 O  -1.90000029   2.07399476  -4.75411540
 C  -2.70872557  -1.12943017  -4.31008000
 H  -2.45762594  -0.61758355  -5.24067659
 H  -3.67615380  -1.62186911  -4.42173232
 H  -1.94947885  -1.89031107  -4.11282052
 O  -3.16245703  -0.83321168  -1.96186150
 H  -2.50903497  -1.51656302  -1.79304258
 N   0.28015168   1.52580707  -4.37241429
 H   0.83365129   1.18399370  -3.59371563
 C   0.78798916   2.79751332  -4.88342630
 H   0.01196425   3.21647867  -5.52761803
 C   2.03111563   2.59964969  -5.75936745
 C   1.04307074   3.75522043  -3.72373385
 H   1.72974189   3.29920509  -3.00551272
 H   0.09470121   3.99388230  -3.23829869
 O   2.81284937   3.52449158  -5.97616800
 O   1.62032573   4.99910723  -4.24043740
 H   2.13303601   5.48341032  -3.57381932
 N   2.18647183   1.38210534  -6.29569031
 H   1.48409118   0.68511529  -6.10334271
 C   3.16220441   1.15443457  -7.33958064
 H   2.75180176   0.50273858  -8.11168471
 H   3.41089218   2.11115156  -7.80170065
 C   4.48261443   0.51994442  -6.91349514
 O   5.25531285   0.08890338  -7.75135134
 N   4.75694300   0.52167196  -5.58611437
 H   4.01422630   0.70411621  -4.94406737
 C   5.93303148  -0.16171803  -5.09015977
 H   6.78334817   0.11463014  -5.71904804
 C   5.80237540  -1.67107552  -5.17631207
 C   6.20013793   0.26560551  -3.64317153
 H   6.22742423   1.35797012  -3.63688751
 H   5.35614138  -0.03939277  -3.02008334
 O   6.71603687  -2.42410443  -5.40495447
 C   7.50345211  -0.27886754  -3.08064256
 H   7.48927254  -1.36773335  -3.07052975
 H   8.32452095   0.01061062  -3.74579917
 C   7.77801130   0.24509785  -1.67934614
 H   6.94843622  -0.03412353  -1.02017900
 H   7.81055929   1.34059938  -1.70136061
 C   9.07241473  -0.27957066  -1.08853313
 H   9.89925400  -0.03724195  -1.76291939
 H   9.27690042   0.23156555  -0.13734152
 N   9.01528074  -1.73957006  -0.95481118
 H   8.32380052  -1.99423171  -0.25766135
 H   9.89998048  -2.09386978  -0.61367630
 O   4.54963662  -2.09982902  -4.91894769
 H   4.57646867  -3.06193124  -4.97552375
 H   2.24117322   4.66607517  -4.97918443
