21
conf-746
 N  -3.85646174  -0.54069338   4.39769411
 H  -4.23283380  -0.26617933   5.30360269
 H  -4.41218829  -1.31581709   4.03915899
 H  -2.92077472  -0.91796630   4.53881745
 C  -3.82811339   0.56896121   3.42920590
 H  -3.23621288   1.40089794   3.81058377
 H  -4.83358816   0.94247535   3.23635483
 C  -3.22725542   0.10120473   2.11259968
 O  -2.96207164  -1.07014216   1.89441046
 N  -3.06850005   1.08565744   1.18159614
 H  -3.00517069   2.03315872   1.51698237
 C  -2.30001228   0.81756796  -0.02823662
 H  -2.44519434  -0.23782733  -0.26020876
 C  -0.83628240   1.11655852   0.26366715
 C  -2.78701873   1.69881813  -1.17121599
 H  -3.83626026   1.46219284  -1.35845611
 H  -2.74240374   2.73680460  -0.82975125
 O  -0.45664786   2.26293966   0.45802151
 C  -1.99361646   1.57612972  -2.47552419
 H  -0.95189712   1.83423593  -2.25006374
 C  -2.03106324   0.16310667  -3.04984758
 H  -3.05703796  -0.11153738  -3.31150972
 H  -1.42197163   0.10872056  -3.95648918
 H  -1.64194632  -0.58208678  -2.35422046
 C  -2.53122552   2.57946712  -3.49376584
 H  -3.57790821   2.36345042  -3.71960531
 H  -2.46499708   3.60036306  -3.11237886
 H  -1.96454117   2.53017720  -4.42591819
 N  -0.01656509   0.03466647   0.33850762
 H  -0.35967240  -0.82162067  -0.06479511
 C   1.42149953   0.22766071   0.30191859
 H   1.61795820   1.15367590   0.84501491
 C   1.89056459   0.42793786  -1.14249082
 C   2.18621122  -0.91597037   0.99686397
 H   3.24344268  -0.75705349   0.75916221
 O   1.33182254  -0.06010275  -2.11497955
 C   2.01903002  -0.82744491   2.51267833
 H   0.97095146  -0.95252543   2.79173895
 H   2.59564456  -1.61243618   3.00655178
 H   2.36359952   0.13598106   2.89327186
 C   1.76467512  -2.29035665   0.48284903
 H   0.76894785  -2.54664331   0.85122994
 H   2.45621416  -3.05213460   0.84919476
 H   1.75183089  -2.33276929  -0.60642785
 N   3.01009975   1.19251651  -1.27420984
 H   3.55982116   1.36971697  -0.45507037
 C   3.69206910   1.23094064  -2.55622646
 H   2.94724131   1.46003703  -3.31967802
 C   4.28860103  -0.11129191  -2.92941714
 C   4.76828630   2.31756425  -2.52625052
 H   4.26188827   3.25870557  -2.29229290
 H   5.45265020   2.10730197  -1.69838546
 O   4.43374332  -0.50953690  -4.05847731
 C   5.55580146   2.47481926  -3.82256329
 H   6.12524457   1.56576863  -4.03826304
 H   6.29061397   3.27106373  -3.68197169
 C   4.67243540   2.81267818  -5.01565920
 H   3.97002587   1.99299297  -5.20286719
 H   4.07233469   3.70069990  -4.78819667
 C   5.47305739   3.06856603  -6.27820036
 H   6.10582216   2.19732573  -6.47552956
 H   4.78640793   3.16473779  -7.13056960
 N   6.34943229   4.23384259  -6.11148922
 H   6.92098048   4.36168934  -6.93709123
 H   5.79042525   5.07595127  -6.02549341
 O   4.69745908  -0.81820857  -1.85272699
 H   5.09173090  -1.62701331  -2.19807696
