21
conf-879
 N  -3.86144009   2.46796272   3.97786815
 H  -4.64482504   2.88098916   4.47806723
 H  -3.86825906   1.45067967   4.08843248
 H  -2.98775091   2.79850271   4.38500410
 C  -3.90561401   2.73510571   2.52880464
 H  -3.39487781   3.66289789   2.28036231
 H  -4.93211640   2.82058152   2.17036788
 C  -3.24396862   1.56929521   1.80784202
 O  -3.04647113   0.50123000   2.36459369
 N  -2.97038117   1.77912273   0.48944774
 H  -2.82678313   2.73332906   0.19597538
 C  -2.15739286   0.80681907  -0.23417402
 H  -2.39983150  -0.16945991   0.18336283
 C  -0.68610617   1.13751607  -0.01255335
 C  -2.49295350   0.86576562  -1.72377247
 H  -3.55986671   0.66247355  -1.83324952
 H  -2.32175497   1.89439274  -2.05247056
 O  -0.24605888   2.24346752  -0.28317358
 C  -1.70533157  -0.08159224  -2.63258688
 H  -0.64197594   0.16215723  -2.53212510
 C  -1.90752521  -1.54740948  -2.26033236
 H  -2.96252540  -1.82010593  -2.35361800
 H  -1.32892502  -2.19188171  -2.92753082
 H  -1.58445928  -1.76932104  -1.24106609
 C  -2.11252491   0.15752062  -4.08531158
 H  -3.17262236  -0.06737946  -4.22164111
 H  -1.94151625   1.19637687  -4.37525439
 H  -1.53842044  -0.47982608  -4.76100887
 N   0.07260488   0.13176999   0.51297190
 H  -0.31759995  -0.79660056   0.44294938
 C   1.52582985   0.20648251   0.41542445
 H   1.75904644   1.26299016   0.29605192
 C   1.97894302  -0.54329565  -0.83434514
 C   2.21638990  -0.29248526   1.70362817
 H   1.77518111   0.31467672   2.50048996
 O   1.44223679  -1.57092401  -1.22765522
 C   1.93950482  -1.76497509   1.99571915
 H   2.39270652  -2.39655772   1.22959493
 H   2.36594305  -2.04100633   2.96306988
 H   0.86934267  -1.98074939   2.02323000
 C   3.72232484  -0.02713783   1.67684428
 H   4.21104562  -0.64550339   0.92984895
 H   4.15947856  -0.26484929   2.64959325
 H   3.94174657   1.02288597   1.46231874
 N   3.03009248   0.00907363  -1.49658741
 H   3.58104161   0.70856701  -1.02925672
 C   3.64486915  -0.71491335  -2.59638657
 H   2.87597744  -0.93052585  -3.34512678
 C   4.20549650  -2.03121232  -2.09111428
 C   4.75440241   0.14145673  -3.21552826
 H   4.31300155   1.10833583  -3.46934884
 H   5.52091711   0.32423622  -2.45770240
 O   4.70538546  -2.20281239  -1.00777357
 C   5.37636586  -0.46044670  -4.46511395
 H   4.57880117  -0.68635103  -5.17854411
 H   5.86337681  -1.41139325  -4.23089740
 C   6.38134052   0.48491528  -5.10287003
 H   5.88983637   1.43407012  -5.33985142
 H   7.16975244   0.70816858  -4.37388815
 C   7.03025774  -0.06576138  -6.35963492
 H   7.82574600   0.61448841  -6.67652950
 H   7.50470734  -1.02966196  -6.12364964
 N   6.06236186  -0.15694651  -7.45908672
 H   6.54757286  -0.34254504  -8.32755511
 H   5.44852218  -0.94954662  -7.31576287
 O   4.12573772  -2.99792402  -3.03328729
 H   4.53034354  -3.78599212  -2.65158639
