21
conf-538
 N  -4.82439099   2.76109957   3.56059769
 H  -5.01251786   3.60791295   4.09525534
 H  -5.67752789   2.49928043   3.06949331
 H  -4.63984548   2.00412806   4.21682011
 C  -3.70326951   2.92098921   2.61972724
 H  -2.79336319   3.19879215   3.15323196
 H  -3.91549214   3.70660798   1.89608120
 C  -3.44883963   1.61919847   1.86659792
 O  -4.08183642   0.59478339   2.10143212
 N  -2.49626772   1.69871854   0.90561472
 H  -1.84284037   2.47010861   0.90036093
 C  -1.99098285   0.51723215   0.23777976
 H  -2.34496036  -0.36350541   0.77590710
 C  -0.47106927   0.60615687   0.30672413
 C  -2.45080290   0.42499927  -1.21785444
 H  -2.10799023   1.31810419  -1.74729223
 H  -1.96346785  -0.44020393  -1.68759928
 O   0.09653878   1.69394043   0.37341701
 C  -3.96260347   0.28362277  -1.41329847
 H  -4.45215550   1.08601486  -0.86567812
 C  -4.31277956   0.44324734  -2.88618172
 H  -3.87666644  -0.36926722  -3.47420399
 H  -5.39335768   0.42659864  -3.03916973
 H  -3.93338970   1.38978731  -3.27852192
 C  -4.46826230  -1.05534849  -0.88232296
 H  -3.97054594  -1.87430579  -1.41082156
 H  -4.28025906  -1.16489031   0.18612689
 H  -5.54389065  -1.15242003  -1.04904705
 N   0.20657896  -0.55923416   0.25255738
 H  -0.27643225  -1.40037471  -0.01267184
 C   1.66063278  -0.57955970   0.17503590
 H   1.98758831   0.31725761   0.70461376
 C   2.08157031  -0.43874508  -1.29021638
 C   2.25040893  -1.81734221   0.86430990
 H   3.28339195  -1.89007262   0.51661520
 O   2.57579901  -1.35029091  -1.94086017
 C   2.25833653  -1.60881502   2.37822927
 H   1.24079140  -1.48081482   2.75627936
 H   2.69925787  -2.47004758   2.88460234
 H   2.83981864  -0.72551832   2.64879613
 C   1.51750649  -3.10837930   0.50666147
 H   0.52230747  -3.12812113   0.95620529
 H   2.07190669  -3.96136172   0.90760716
 H   1.42736115  -3.24107246  -0.57087166
 N   1.79263574   0.76788533  -1.83934247
 H   1.40298774   1.50591904  -1.26761227
 C   2.04338928   1.01313869  -3.23274447
 H   2.64986899   0.17330233  -3.59112898
 C   2.87910407   2.25518351  -3.46489824
 C   0.75828928   1.06982392  -4.05929578
 H   0.09898919   1.84084372  -3.65009607
 H   1.01894362   1.37645578  -5.07290365
 O   3.05572857   2.74842102  -4.54853716
 C   0.03156184  -0.26477896  -4.08938822
 H  -0.24148101  -0.56292246  -3.07453639
 H   0.71369705  -1.03770776  -4.45860501
 C  -1.21734757  -0.22926555  -4.94730527
 H  -1.89140523   0.55475409  -4.57859596
 H  -0.95319136   0.04291012  -5.97376603
 C  -1.96567463  -1.55121737  -4.94491358
 H  -1.30651044  -2.34820681  -5.29846385
 H  -2.24255469  -1.80541316  -3.91492491
 N  -3.17404377  -1.57384325  -5.76758545
 H  -3.74080581  -0.75757782  -5.57566323
 H  -2.91987129  -1.50691334  -6.74674420
 O   3.45146453   2.73171619  -2.34160867
 H   3.98591297   3.49059051  -2.61214666
