21
conf-217
 N  -4.43945065  -0.57138124   3.90150656
 H  -4.97219945  -0.36263410   4.74431108
 H  -4.94027917  -1.28285343   3.37127062
 H  -3.55973521  -1.00558894   4.17576598
 C  -4.19312255   0.61867680   3.06925503
 H  -3.65492870   1.38107470   3.63205703
 H  -5.13062734   1.05938010   2.73140182
 C  -3.37124151   0.23793963   1.84759393
 O  -3.09471206  -0.91969635   1.58174372
 N  -3.01793553   1.28663521   1.04789499
 H  -2.95861897   2.19451553   1.48099514
 C  -2.05864351   1.06747054  -0.02649986
 H  -2.23795324   0.06332954  -0.40914044
 C  -0.64644068   1.17459897   0.53550678
 C  -2.25869011   2.10751533  -1.12601959
 H  -3.27372884   1.99314981  -1.51123869
 H  -2.19577950   3.09546704  -0.66246710
 O  -0.27261746   2.18407213   1.12305904
 C  -1.26827249   2.05099903  -2.29308215
 H  -0.27071544   2.27365696  -1.88971086
 C  -1.22335096   0.68672891  -2.97087243
 H  -2.22997485   0.37267666  -3.26419423
 H  -0.61950492   0.74841993  -3.88325421
 H  -0.78809081  -0.09311265  -2.34372420
 C  -1.62309522   3.13048705  -3.31166320
 H  -2.60166309   2.92524099  -3.75040138
 H  -1.65224740   4.12044269  -2.85145898
 H  -0.89007425   3.15607511  -4.12050594
 N   0.14833549   0.09730837   0.31581074
 H  -0.21720861  -0.66676440  -0.23176489
 C   1.60234582   0.19451683   0.38361562
 H   1.84957330   1.25356176   0.50116837
 C   2.12637422  -0.33673663  -0.94846546
 C   2.17954478  -0.57154473   1.58479073
 H   1.77979350  -1.58617254   1.53426433
 O   1.71554722  -1.39756829  -1.41464245
 C   3.70506940  -0.64658837   1.55324736
 H   4.13769355   0.35980307   1.53234507
 H   4.07134794  -1.15321789   2.44920420
 H   4.06956397  -1.19811684   0.68228747
 C   1.71521518   0.09382698   2.88019418
 H   2.18914682   1.07627615   2.97148573
 H   2.00150047  -0.50785846   3.74501651
 H   0.63612248   0.24276074   2.89725202
 N   3.07599626   0.40924457  -1.55401252
 H   3.44676829   1.24460219  -1.12464157
 C   3.74229057  -0.03926453  -2.75929470
 H   4.10025028  -1.06425776  -2.61632820
 C   4.94386615   0.85738005  -2.95820435
 C   2.82957162  -0.04991085  -3.99493175
 H   3.42633226  -0.39776922  -4.83932884
 H   2.05712899  -0.79970052  -3.81525179
 O   5.18565485   1.84449566  -2.31036411
 C   2.17844199   1.28737953  -4.30290908
 H   2.92760991   2.08424516  -4.33040821
 H   1.48511581   1.54439908  -3.49386772
 C   1.41228787   1.26516400  -5.61862876
 H   0.81337394   0.34981834  -5.68564437
 H   0.70390178   2.10159742  -5.64451484
 C   2.30311646   1.35292190  -6.83951919
 H   2.90807721   2.27014901  -6.77769214
 H   2.99808131   0.51010878  -6.84264584
 N   1.48652550   1.27050659  -8.04995760
 H   0.89921760   2.09255848  -8.12340290
 H   2.07654890   1.27538354  -8.87248411
 O   5.72698697   0.42945623  -3.96680043
 H   6.46332510   1.05325938  -4.01940820
