21
conf-472
 N  -4.27553654   0.03644747   4.48614303
 H  -5.08645713   0.18331364   5.08205802
 H  -4.38535997  -0.82351938   3.94170501
 H  -3.44695798  -0.09135494   5.06515141
 C  -4.07789615   1.12538212   3.51164390
 H  -3.44775282   1.91303739   3.91908588
 H  -5.02689265   1.58014167   3.22492751
 C  -3.43368332   0.53371638   2.26545466
 O  -3.41669655  -0.67212263   2.06926560
 N  -2.96048233   1.44019798   1.36615071
 H  -2.70450576   2.35201542   1.71629286
 C  -2.15466911   0.99173488   0.24162257
 H  -2.42420883  -0.04815527   0.06330127
 C  -0.67833051   1.09248842   0.61323957
 C  -2.44533222   1.85378064  -0.99108562
 H  -3.51789231   1.80334190  -1.18858056
 H  -2.21682608   2.88891514  -0.72070246
 O  -0.22887952   2.05020313   1.22044218
 C  -1.68966787   1.49728147  -2.27518633
 H  -0.61144019   1.54119331  -2.07157165
 C  -2.03181430   0.09861637  -2.77259499
 H  -3.08365925   0.05228473  -3.06761580
 H  -1.41873599  -0.16015192  -3.64029025
 H  -1.86173481  -0.67091468  -2.01463661
 C  -2.00824318   2.53663611  -3.34632426
 H  -3.08101454   2.54707580  -3.55230858
 H  -1.71199478   3.53665034  -3.02283887
 H  -1.48682341   2.31738055  -4.28026123
 N   0.09941924   0.06567425   0.17266187
 H  -0.27868611  -0.58207339  -0.50031382
 C   1.54214511   0.21022571   0.07420462
 H   1.76904596   1.28064414   0.12180632
 C   1.92595472  -0.35551039  -1.29556828
 C   2.26127103  -0.46246779   1.26496131
 H   1.73932194  -0.05569155   2.13843675
 O   1.20155841  -1.14232126  -1.89244829
 C   2.10568758  -1.98179574   1.25142208
 H   2.62519399  -2.40654505   0.39025600
 H   2.53796816  -2.41187245   2.15799661
 H   1.05455088  -2.27477130   1.19685008
 C   3.73262720  -0.06961179   1.37224386
 H   4.32126680  -0.51041323   0.56409548
 H   4.14283183  -0.43222262   2.31769169
 H   3.85929868   1.01638287   1.34887049
 N   3.12145285   0.04443777  -1.77699363
 H   3.65274861   0.75505357  -1.29997101
 C   3.58189659  -0.40143372  -3.08227099
 H   3.36632190  -1.46904578  -3.17328137
 C   5.07795218  -0.21995915  -3.19148667
 C   2.86310135   0.32496745  -4.23203775
 H   1.79201793   0.23644108  -4.04028154
 H   3.11198028   1.38668054  -4.19608330
 O   5.82073836  -0.93825924  -3.81090678
 C   3.20473329  -0.26582119  -5.59378925
 H   3.01365735  -1.34490316  -5.56179015
 H   4.27240358  -0.15302699  -5.80064543
 C   2.40631020   0.34678933  -6.73824394
 H   2.60259073  -0.21563077  -7.65775112
 H   1.33259149   0.25592328  -6.54344960
 C   2.73320988   1.80399876  -6.99338193
 H   2.44264898   2.40105215  -6.12444629
 H   3.82157322   1.91694738  -7.11529800
 N   1.96453190   2.28365238  -8.14145088
 H   2.13308657   3.27061910  -8.29027957
 H   2.28142673   1.81674089  -8.98264890
 O   5.50720120   0.88694770  -2.54295356
 H   6.46015049   0.94187773  -2.68700599
