21
conf-121
 N  -3.58102798   0.58966098   4.54044735
 H  -3.91086148   1.04738905   5.38884229
 H  -4.18013330  -0.21348800   4.35551158
 H  -2.65555005   0.20514902   4.72315574
 C  -3.54936683   1.49419638   3.37871934
 H  -2.90934292   2.35435063   3.57516967
 H  -4.54587963   1.87276665   3.15195494
 C  -3.02211392   0.76418778   2.15422789
 O  -2.80965366  -0.43927394   2.14611149
 N  -2.86386729   1.55434588   1.05229746
 H  -2.73999304   2.53908847   1.21268480
 C  -2.17579407   1.02149577  -0.11803686
 H  -2.51969507  -0.00638794  -0.23046111
 C  -0.67550617   1.05825392   0.12283018
 C  -2.51931051   1.83398016  -1.35751334
 H  -3.60161881   1.79993762  -1.49616950
 H  -2.24851147   2.87694899  -1.16031028
 O  -0.07522922   2.12888291   0.21301017
 C  -1.83655323   1.37948218  -2.65102622
 H  -0.74944132   1.48129024  -2.50563692
 C  -2.12393819  -0.07740153  -2.99293559
 H  -3.20210890  -0.25648560  -3.03786633
 H  -1.70131910  -0.32494626  -3.96996306
 H  -1.68355973  -0.76682503  -2.26999790
 C  -2.25114733   2.30012207  -3.79325954
 H  -3.31636744   2.18590866  -4.00386017
 H  -2.06222422   3.35075685  -3.55477035
 H  -1.69416259   2.06042187  -4.70292736
 N  -0.06623352  -0.13519714   0.26948083
 H  -0.58834766  -0.96554976   0.05339674
 C   1.38698226  -0.24195257   0.31599347
 H   1.74144676   0.46034841   1.07327330
 C   1.92493270   0.18987675  -1.04836847
 C   1.81264896  -1.66995125   0.68732004
 H   1.38774654  -2.32283023  -0.07737819
 O   1.47360643  -0.27385178  -2.09561077
 C   3.33109260  -1.84333239   0.69137741
 H   3.78350168  -1.18641038   1.44190049
 H   3.58937159  -2.87369209   0.94512601
 H   3.77629125  -1.61453510  -0.28204452
 C   1.25566646  -2.06792789   2.05375567
 H   1.70344378  -1.44269485   2.83039870
 H   1.50549146  -3.10870149   2.27205626
 H   0.17144106  -1.95666214   2.10705394
 N   2.91188437   1.11696131  -1.01164516
 H   3.27502166   1.44109257  -0.12941879
 C   3.48476742   1.66427070  -2.21819163
 H   3.20164244   0.99626516  -3.03446614
 C   4.99113547   1.68394360  -2.08627591
 C   2.97959592   3.08022265  -2.53663202
 H   3.29103688   3.76847337  -1.74909673
 H   3.46192768   3.40671033  -3.45720033
 O   5.60484171   1.58263495  -1.05556644
 C   1.46769003   3.11450735  -2.69080683
 H   1.00635069   2.89603662  -1.72745689
 H   1.16347083   2.30975157  -3.36997705
 C   0.91314876   4.44136346  -3.19841673
 H   1.23315798   4.60789066  -4.23344133
 H  -0.18534828   4.37044333  -3.22124000
 C   1.29948363   5.64951067  -2.36150169
 H   2.37565638   5.82706713  -2.45454541
 H   0.79801296   6.53879423  -2.76599530
 N   0.98898925   5.41208638  -0.94781095
 H   1.20402149   6.23057591  -0.39205456
 H  -0.00304690   5.24254742  -0.82836967
 O   5.59010302   1.86964697  -3.28067370
 H   6.53804529   1.89127014  -3.09792060
