21
conf-428
 N  -2.06767472   2.31992530   3.96962248
 H  -2.14963630   3.09446062   4.62605658
 H  -1.70742101   1.50489680   4.46932024
 H  -1.36857060   2.56467379   3.26406266
 C  -3.36705911   1.98076668   3.33864738
 H  -3.84258587   2.88393181   2.95749877
 H  -4.02827973   1.50798388   4.06193125
 C  -3.11512017   1.00391809   2.20666487
 O  -3.01398024  -0.20144415   2.38402760
 N  -2.92898359   1.58898012   0.97291807
 H  -2.72269260   2.57333664   1.01652422
 C  -2.06650694   0.88444839   0.03208941
 H  -2.42664635  -0.14782190  -0.00401913
 C  -0.63058205   0.87276035   0.57728518
 C  -2.11946105   1.51265913  -1.35133128
 H  -1.73511263   2.53307818  -1.27813998
 H  -1.43922097   0.96952712  -2.01117026
 O  -0.24659483   1.65128236   1.45053176
 C  -3.50572966   1.53860505  -1.99894333
 H  -4.18997440   2.06628648  -1.33012605
 C  -3.43391260   2.31006180  -3.31299340
 H  -2.74423228   1.81692251  -4.00305617
 H  -4.41284128   2.36339063  -3.79589218
 H  -3.08164234   3.33180937  -3.15445291
 C  -4.04853940   0.13353679  -2.23134187
 H  -3.39449792  -0.41634248  -2.91527294
 H  -4.12484895  -0.43743979  -1.30232392
 H  -5.04369108   0.17265831  -2.68174291
 N   0.16619868  -0.07449323   0.03093778
 H  -0.15323882  -0.63775139  -0.74205973
 C   1.55398194  -0.24118378   0.41521066
 H   1.89299034   0.69450087   0.86460976
 C   2.31793744  -0.53763334  -0.87576428
 C   1.75122885  -1.36693561   1.45698540
 H   1.47378663  -2.30204261   0.96333190
 O   1.85041687  -1.27215838  -1.73482195
 C   3.20563309  -1.45563506   1.91703094
 H   3.51071965  -0.50258656   2.36256997
 H   3.31076276  -2.23147650   2.67841610
 H   3.89086193  -1.69531601   1.10015845
 C   0.84185561  -1.16328066   2.67001013
 H   1.05403613  -0.20072174   3.13827790
 H   1.02949885  -1.94837093   3.40473100
 H  -0.21572788  -1.19524958   2.40874634
 N   3.54196814   0.03219882  -0.99154690
 H   3.99092504   0.47594349  -0.20419733
 C   4.40382371  -0.27859510  -2.11440159
 H   4.36949020  -1.35561852  -2.30542228
 C   5.81301448   0.08742528  -1.71396058
 C   3.96428466   0.42734277  -3.40496908
 H   4.57551113   0.04471188  -4.22424966
 H   2.93827918   0.10086723  -3.58318312
 O   6.11811176   0.62974183  -0.68116090
 C   4.05148350   1.94417266  -3.34881392
 H   5.09240246   2.24085670  -3.17697275
 H   3.47785210   2.31844383  -2.49760442
 C   3.54558155   2.61387840  -4.61952424
 H   3.79403692   3.68059856  -4.59001795
 H   4.06346624   2.20074590  -5.49161346
 C   2.05098586   2.47742496  -4.82721206
 H   1.79193388   1.41997803  -4.93289166
 H   1.52464670   2.85074534  -3.93478451
 N   1.66050995   3.16099654  -6.05965278
 H   0.67261734   3.03093850  -6.23731766
 H   1.79628728   4.15909165  -5.95392711
 O   6.70969936  -0.26107965  -2.65557744
 H   7.57490371   0.00542281  -2.31849021
