21
conf-503
 N  -3.32290908  -2.49513619   3.38227594
 H  -3.73486316  -2.71242148   4.28851765
 H  -3.80984838  -3.03630493   2.66973660
 H  -2.36193391  -2.83107676   3.37674688
 C  -3.36861825  -1.05732150   3.06356122
 H  -2.91558281  -0.46725447   3.85948189
 H  -4.39942835  -0.71981933   2.95507866
 C  -2.62786953  -0.76972552   1.76715519
 O  -2.22707335  -1.66639870   1.02648885
 N  -2.48348651   0.54257123   1.47515422
 H  -2.60817916   1.21732331   2.21051143
 C  -1.80541451   1.00863943   0.27145535
 H  -2.04254970   0.27588831  -0.50228516
 C  -0.29007036   1.00086351   0.48713492
 C  -2.29034952   2.39281288  -0.12762284
 H  -2.19505712   3.04498324   0.74302966
 H  -1.61933536   2.79654711  -0.88701173
 O   0.37566518   2.03311075   0.59862576
 C  -3.72027256   2.43083719  -0.66431179
 H  -4.37143887   1.90669985   0.04041612
 C  -4.19212136   3.87996754  -0.76140260
 H  -3.55360427   4.44337998  -1.44759579
 H  -5.21789183   3.93664124  -1.13372997
 H  -4.16194805   4.37455199   0.21202819
 C  -3.82466873   1.75056749  -2.02682878
 H  -3.22056758   2.28943619  -2.76245264
 H  -3.47499220   0.71597340  -2.00038176
 H  -4.85924613   1.74543114  -2.37854994
 N   0.27997530  -0.22067745   0.58536298
 H  -0.28235079  -1.05154588   0.45005866
 C   1.72009203  -0.36514088   0.72320546
 H   2.05159627   0.45329277   1.36943451
 C   2.35906594  -0.20408870  -0.66209880
 C   2.11624763  -1.70084284   1.36772403
 H   1.86415541  -2.48592627   0.65268440
 O   2.65533548  -1.14465792  -1.38381644
 C   3.62549204  -1.72852165   1.63295700
 H   3.88381840  -0.94829916   2.35263465
 H   3.92001024  -2.69322144   2.05068460
 H   4.19766395  -1.55877334   0.71849685
 C   1.36525464  -1.94811632   2.67219872
 H   1.57030498  -1.14745099   3.38702815
 H   1.69013400  -2.89074158   3.11666479
 H   0.28685243  -2.00680016   2.51884689
 N   2.56228919   1.08192158  -1.05480988
 H   2.07844159   1.82280858  -0.56539322
 C   3.06294528   1.31583826  -2.39408474
 H   2.41223443   0.81149444  -3.11870768
 C   4.45090166   0.71307118  -2.53402092
 C   3.10522289   2.80985037  -2.72498932
 H   3.33655191   2.91549953  -3.78892171
 H   2.09788906   3.21129460  -2.58273936
 O   5.26182199   0.57121800  -1.65359519
 C   4.11401382   3.60461894  -1.90897724
 H   5.11353233   3.20434156  -2.07815449
 H   3.91063678   3.47816431  -0.84184169
 C   4.07368950   5.08389453  -2.26058445
 H   4.31956996   5.21662891  -3.31876520
 H   3.05032265   5.45247579  -2.12455081
 C   5.00701983   5.93747143  -1.42228065
 H   4.82273081   6.99230292  -1.64389989
 H   4.77007029   5.78407417  -0.35878983
 N   6.41064320   5.65613456  -1.74445592
 H   7.00765092   6.34410749  -1.30341897
 H   6.68301833   4.76436122  -1.34847874
 O   4.70777593   0.40617241  -3.82701071
 H   5.60550224   0.05326257  -3.83498269
