21
conf-883
 N  -2.94540282  -2.72448271  -3.46862899
 H  -2.64916414  -3.63214526  -3.81887467
 H  -3.91376589  -2.56021432  -3.74207308
 H  -2.37822395  -1.98728615  -3.89342911
 C  -2.77023924  -2.59810470  -2.01028243
 H  -1.94115763  -3.21711577  -1.65925468
 H  -3.66390993  -2.90168198  -1.47498811
 C  -2.43641449  -1.15241719  -1.69705018
 O  -1.95579884  -0.41890965  -2.55788867
 N  -2.61631343  -0.75731812  -0.42503187
 H  -3.16092951  -1.32147229   0.20416778
 C  -2.29178754   0.60030295  -0.01319721
 H  -2.71975655   1.30209881  -0.73194948
 C  -0.78362918   0.85700645  -0.04352045
 C  -2.89218570   0.84231728   1.37248754
 H  -3.97492194   0.72401039   1.27785293
 H  -2.53894981   0.05546821   2.04248735
 O  -0.32743453   1.95398577  -0.34269842
 C  -2.59979501   2.20366124   2.00455655
 H  -1.51835432   2.28744866   2.14461823
 C  -3.05331013   3.35044537   1.10430738
 H  -4.12748838   3.28013255   0.90657079
 H  -2.86134880   4.31210258   1.58631020
 H  -2.52346045   3.34158566   0.15227055
 C  -3.26782393   2.28521612   3.37386792
 H  -4.35287041   2.21012715   3.27140952
 H  -2.92903076   1.47715131   4.02549772
 H  -3.03634378   3.23250503   3.86591736
 N  -0.00297176  -0.18358786   0.35715128
 H  -0.39260459  -1.10507891   0.26606817
 C   1.43094247  -0.10311278   0.18595190
 H   1.72969483   0.91713275   0.43757401
 C   1.76021801  -0.38549004  -1.28007957
 C   2.16024550  -1.09438605   1.11417753
 H   1.77045933  -2.08517267   0.86371135
 O   1.22455688  -1.29419208  -1.90135677
 C   3.67292875  -1.09315822   0.88820090
 H   4.08569454  -0.08973290   1.05371370
 H   4.15134580  -1.77399179   1.59588005
 H   3.94522402  -1.41259265  -0.12076073
 C   1.86059005  -0.78449276   2.57848257
 H   2.26617737   0.19722972   2.83678366
 H   2.33467810  -1.52685457   3.22460394
 H   0.79029670  -0.78240265   2.78635196
 N   2.71111337   0.41985290  -1.82484994
 H   3.27178241   0.98200163  -1.20388752
 C   3.35705038   0.05409527  -3.06850106
 H   3.12339432  -0.99499043  -3.28006845
 C   4.84855446   0.17533429  -2.86537921
 C   2.88250268   0.90788535  -4.24589269
 H   3.07873317   1.96057772  -4.03428803
 H   3.46770368   0.64069009  -5.12696811
 O   5.37551576   0.60231173  -1.86686890
 C   1.40145435   0.69454231  -4.52235670
 H   0.83320967   0.89091241  -3.61622573
 H   1.23890588  -0.36248234  -4.76553261
 C   0.88900154   1.57200623  -5.65222757
 H   1.02161518   2.62447084  -5.37295703
 H   1.49953461   1.40763172  -6.54812764
 C  -0.57316540   1.32322122  -6.02211631
 H  -0.84650283   1.99333747  -6.84274964
 H  -0.68254403   0.30521838  -6.41063422
 N  -1.55279574   1.49166773  -4.96085049
 H  -1.54687125   0.73308902  -4.29298166
 H  -1.41400518   2.35445954  -4.45200660
 O   5.54249258  -0.25319486  -3.93458247
 H   6.47606663  -0.13528117  -3.71630566
