21
conf-234
 N  -5.54046497  -3.45041329  -4.07161624
 H  -5.46071902  -2.77616279  -4.83225385
 H  -5.11095079  -4.32094415  -4.38720940
 H  -6.52567954  -3.61722159  -3.86448217
 C  -4.84364933  -2.96414595  -2.86763228
 H  -5.24376058  -1.98296070  -2.59405072
 C  -3.35927361  -2.81795484  -3.18399600
 C  -5.06871851  -3.90538262  -1.68583883
 H  -4.62026286  -4.87178771  -1.92150816
 H  -4.54726563  -3.50702275  -0.81413478
 O  -2.90065705  -3.27198499  -4.23718034
 C  -6.53449816  -4.08055448  -1.38165098
 C  -7.29245337  -3.00762013  -0.92200839
 H  -6.80513962  -2.05268577  -0.76437873
 C  -7.16591023  -5.30186296  -1.59483500
 H  -6.58716950  -6.14478709  -1.95822470
 C  -8.65102455  -3.15261531  -0.66202152
 H  -9.22019747  -2.30449145  -0.29831666
 C  -8.52784099  -5.45332417  -1.35108802
 H  -9.00148375  -6.41240238  -1.52616842
 C  -9.27435578  -4.37749584  -0.88071433
 H  -10.33449731  -4.49251190  -0.68495724
 N  -2.59932120  -2.20682484  -2.26356119
 H  -3.01526046  -1.73348949  -1.47302629
 C  -1.14348169  -2.12249524  -2.31958997
 H  -0.72862739  -3.11943287  -2.48326587
 C  -0.72416534  -1.59992386  -0.94606924
 C  -0.64375180  -1.23105684  -3.45985769
 H   0.39481985  -0.95717898  -3.33680743
 H  -1.27145015  -0.34656230  -3.53777797
 O  -1.44773722  -0.86241843  -0.30171116
 O  -0.74350335  -1.94016240  -4.75443025
 H   0.03867847  -2.50206577  -4.89321568
 N   0.51915117  -1.96236245  -0.53409554
 H   1.00473251  -2.69160204  -1.02327468
 C   0.91468940  -1.72733487   0.83889879
 H   0.02150179  -1.35756222   1.35394899
 C   2.00056190  -0.65441017   0.99265803
 C   1.39209483  -3.01961946   1.47694183
 H   1.58427230  -2.83778574   2.53694651
 H   2.33448738  -3.33484662   1.01049140
 O   2.77077616  -0.67786631   1.94622894
 O   0.36104509  -3.98884835   1.28791312
 H   0.68220549  -4.82725554   1.62776809
 N   2.01631719   0.32466125   0.06023858
 H   1.47602557   0.24283784  -0.79901229
 C   3.10429285   1.27981515   0.00595557
 H   4.05072239   0.74678339  -0.14652225
 C   3.19218552   2.07676422   1.30747061
 C   2.85073688   2.24090843  -1.15656440
 H   1.92317753   2.77350354  -0.94217328
 H   3.66686411   2.95290231  -1.27102002
 O   2.21191975   2.56438921   1.84215915
 C   2.72011052   1.43001825  -2.45485951
 O   3.59581550   1.54394532  -3.31267819
 O   1.67665020   0.72971132  -2.52725473
 N   4.44951793   2.21992986   1.80403513
 H   5.28115919   2.15982003   1.22576927
 C   4.69947601   3.06485782   2.93240906
 H   3.91885656   3.83380747   3.00209025
 C   6.08999524   3.72657947   2.67343221
 C   4.77928224   2.31005620   4.26052611
 H   5.05570755   3.04033890   5.02529778
 H   5.58107712   1.56704622   4.21397528
 O   6.44835494   4.59554216   3.46968987
 C   3.46531866   1.62394294   4.60987942
 H   3.23323428   0.87951048   3.85945356
 H   2.65690397   2.35242957   4.58567027
 C   3.51975313   0.97500959   5.98374361
 H   4.28197283   0.19276712   5.98274767
 H   3.81848656   1.70750514   6.74085112
 N   2.26779160   0.31999177   6.40313740
 H   2.08905295  -0.58245117   5.98564212
 N   1.19833240   2.34885705   6.84632734
 H   0.48735293   2.82930729   7.37418750
 H   2.09487299   2.80391773   6.79866556
 N   0.02070793   0.31946224   6.96007215
 H   0.10878748  -0.65550041   7.21458945
 H  -0.73843986   0.80744898   7.41225438
 C   1.17149500   1.00662148   6.75755684
 O   6.69209262   3.28730345   1.66700703
 H  -1.56442597  -2.53764603  -4.67199777
