21
conf-448
 N  -4.50248960  -1.75523100  -5.20583056
 H  -4.22296983  -2.21862268  -6.07168090
 H  -4.48308141  -2.45540692  -4.45564156
 H  -5.43593883  -1.35284727  -5.29722568
 C  -3.53062315  -0.72468089  -4.80484052
 H  -3.12434108  -0.23222785  -5.69220167
 C  -2.42153314  -1.41668581  -4.02180566
 C  -4.19524706   0.33417339  -3.91721113
 H  -4.61251818  -0.16326836  -3.03753879
 H  -3.42691513   1.02358238  -3.56124904
 O  -2.62234946  -2.47424667  -3.44876126
 C  -5.27778632   1.07957298  -4.65141659
 C  -6.62046067   0.86217242  -4.35894777
 H  -6.88863767   0.16574171  -3.57037446
 C  -4.95301492   1.95705922  -5.68487978
 H  -3.90817303   2.11124598  -5.93079498
 C  -7.62232537   1.51745545  -5.06973301
 H  -8.66169412   1.32999842  -4.82681069
 C  -5.94733369   2.62855439  -6.38934119
 H  -5.66952906   3.31487423  -7.18133866
 C  -7.28744040   2.40731681  -6.08577084
 H  -8.06486048   2.92347902  -6.63740988
 N  -1.21953701  -0.76525128  -3.98166550
 H  -1.24064377   0.20736356  -4.24443734
 C  -0.31663754  -1.04559499  -2.88042503
 H  -0.47624418  -2.08414174  -2.58986563
 C  -0.63910614  -0.09827973  -1.72474351
 C   1.11777725  -0.83613597  -3.34895189
 H   1.30328837   0.23144231  -3.51214463
 H   1.28126113  -1.39397974  -4.26797788
 O  -1.04493842   1.03073419  -1.92122258
 O   2.06739208  -1.31856568  -2.33419833
 H   2.98456907  -1.35914307  -2.65652971
 N  -0.39408665  -0.57544656  -0.46502569
 H   0.14775749  -1.42460748  -0.42445314
 C  -0.05521639   0.39636721   0.56769247
 H  -0.78745324   1.20328612   0.50049964
 C   1.34270523   0.96957749   0.32032428
 C  -0.17197553  -0.26626975   1.93628802
 H   0.08793285   0.44243349   2.72527230
 H   0.53980133  -1.10229734   1.98235620
 O   2.19091045   0.35747992  -0.34024721
 O  -1.49800136  -0.68816536   2.18397903
 H  -1.77411096  -1.18281091   1.40755569
 N   1.60568606   2.15782209   0.88802072
 H   0.83556638   2.75644827   1.19491424
 C   2.83462792   2.87923494   0.60063355
 H   2.94522429   2.99151733  -0.48363430
 C   4.04749109   2.12628226   1.15441299
 C   2.74195877   4.24891213   1.27299299
 H   2.68423769   4.08197770   2.35000533
 H   3.60848077   4.86717389   1.03919223
 O   4.07920359   1.69680868   2.29517335
 C   1.46499753   4.97221677   0.78943039
 O   1.62599788   5.98630448   0.09966994
 O   0.37956075   4.47666775   1.17388272
 N   5.09836715   2.01591612   0.29833739
 H   5.21500872   2.64467139  -0.48959463
 C   6.38386168   1.59012098   0.76926362
 H   6.47582152   1.80690643   1.84285015
 C   7.43001982   2.43142874  -0.03228473
 C   6.69977322   0.11208089   0.52851457
 H   7.76180488  -0.02201810   0.73606158
 H   6.54224482  -0.12808659  -0.52705805
 O   8.61226466   2.30391401   0.29215399
 C   5.86380497  -0.81649462   1.39502959
 H   4.81617793  -0.73749678   1.10899809
 H   5.92020822  -0.49939066   2.43937316
 C   6.30686768  -2.26006528   1.27270535
 H   5.61155852  -2.92324834   1.80102491
 H   6.29917521  -2.54443922   0.21843569
 N   7.68025485  -2.40668637   1.80450835
 H   7.85561736  -1.87220296   2.64396359
 N   7.84588952  -4.62422205   1.07438864
 H   8.47009390  -5.37441779   0.82410205
 H   7.09048619  -4.44943012   0.43265214
 N   9.46049890  -3.70855117   2.51013254
 H   9.95979838  -2.85834251   2.73368357
 H   10.05284788  -4.49968252   2.30930921
 C   8.32927053  -3.58146474   1.77513358
 O   6.93812584   3.15901152  -0.92494322
 H   2.05862965  -0.68722205  -1.53216455
