21
conf-684
 N  -4.89100783  -3.53235304  -3.31106862
 H  -4.52798890  -3.88276176  -4.19709215
 H  -4.37936565  -3.99712605  -2.55706805
 H  -5.87377981  -3.78606080  -3.21545393
 C  -4.69309590  -2.07826742  -3.17370811
 H  -5.03473163  -1.57850924  -4.08646615
 C  -3.20022895  -1.78571128  -3.02589207
 C  -5.49027329  -1.52132837  -1.98107921
 H  -5.13705892  -0.50893168  -1.76815756
 H  -6.54135094  -1.45109055  -2.27674623
 O  -2.39541958  -2.62324729  -2.63596543
 C  -5.38034630  -2.39236364  -0.76165033
 C  -6.40827696  -3.26858919  -0.41767688
 H  -7.31870342  -3.27165426  -1.00716664
 C  -4.22170835  -2.40229048   0.00897171
 H  -3.41673398  -1.72930700  -0.24715173
 C  -6.27670038  -4.14158110   0.65956471
 H  -7.08971109  -4.81452462   0.90762488
 C  -4.07321733  -3.28050269   1.07753896
 H  -3.14673108  -3.27467148   1.62975932
 C  -5.10532231  -4.15587427   1.40884645
 H  -5.00088631  -4.84021015   2.24346472
 N  -2.83508824  -0.52065095  -3.35658577
 H  -3.54767740   0.17151984  -3.50820022
 C  -1.46938779  -0.08127371  -3.17474719
 H  -0.83910088  -0.96650646  -3.28471430
 C  -1.30516496   0.48625694  -1.75990106
 C  -1.08286789   0.94918412  -4.21264442
 H  -1.65457847   1.87092191  -4.04095640
 H  -1.24619881   0.60237826  -5.23754320
 O  -1.34709380   1.69742527  -1.53344421
 O   0.46437796   1.22452217  -3.97533813
 H   1.05203514   1.32467599  -4.73226474
 N  -1.14898328  -0.42708112  -0.77407270
 H  -1.07915617  -1.40633424  -1.01890573
 C  -0.58805217  -0.01882148   0.50566849
 H  -0.92452991   1.00218936   0.67791691
 C   0.94986701  -0.06997718   0.45529509
 C  -1.11315124  -0.93627615   1.58943678
 H  -2.20226993  -0.84024206   1.62946138
 H  -0.69122296  -0.64648697   2.55873705
 O   1.56911499  -1.06199050   0.84062478
 O  -0.84016082  -2.29021754   1.29565664
 H   0.12438340  -2.35854740   1.26103004
 N   1.57255721   1.00265095  -0.07234559
 H   1.02959719   1.78629623  -0.41137294
 C   2.99304765   0.94363890  -0.39037465
 H   3.15756823   0.12919757  -1.10366193
 C   3.80783874   0.65905769   0.87427962
 C   3.45946127   2.26315986  -1.01454860
 H   3.33716546   3.07109559  -0.29628930
 H   4.50248793   2.18546499  -1.32145552
 O   3.61798751   1.24782371   1.92442880
 C   2.59276416   2.49283117  -2.25289413
 O   1.68896417   3.34526961  -2.13737951
 O   2.80671052   1.76686146  -3.24376806
 N   4.76196697  -0.29965995   0.73068568
 H   5.19700729  -0.51724969  -0.15984588
 C   5.66344557  -0.59658918   1.80169897
 H   5.74913483   0.27503049   2.46354128
 C   7.03810947  -0.90977836   1.13411686
 C   5.27175172  -1.82183377   2.63285325
 H   6.09069349  -1.98965285   3.33557617
 H   5.21516655  -2.70312914   1.98637054
 O   7.99546174  -1.07695801   1.89199315
 C   3.94042917  -1.63101462   3.34119774
 H   3.15677538  -1.52552182   2.59620299
 H   3.95707676  -0.70091379   3.91383374
 C   3.57339089  -2.78608443   4.25466240
 H   2.55048346  -2.64665162   4.61467661
 H   3.59498921  -3.72708624   3.69284501
 N   4.49064729  -2.84303061   5.41014940
 H   5.42291087  -2.50334317   5.21985275
 N   3.40808710  -4.70568366   6.31724190
 H   3.22335846  -5.24310339   7.14887785
 H   2.60776782  -4.49744856   5.74383932
 N   5.43533305  -3.94492336   7.22178030
 H   5.98283626  -3.11728141   7.41747271
 H   5.26268127  -4.52707319   8.02690232
 C   4.42709866  -3.82317126   6.32275694
 O   7.01074781  -0.95836196  -0.11652459
 H   0.54794786   1.99207930  -3.37579443
