21
conf-34
 N  -5.24974654  -0.39508627  -6.81166318
 H  -4.62129095  -0.10402041  -7.56019414
 H  -5.27241182  -1.41601220  -6.80787289
 H  -6.18801451  -0.03823455  -6.99541199
 C  -4.76982580   0.08958829  -5.50545529
 H  -4.64040313   1.17508139  -5.55195375
 C  -3.42147021  -0.55582363  -5.20769989
 C  -5.78370993  -0.21566304  -4.40401895
 H  -5.88076753  -1.29867086  -4.31209431
 H  -5.39775343   0.15840796  -3.45439577
 O  -3.03380051  -1.51817592  -5.87880763
 C  -7.12932973   0.39807569  -4.69625480
 C  -7.28211740   1.78118071  -4.72456545
 H  -6.42326049   2.40611715  -4.51019957
 C  -8.23051931  -0.40161712  -4.98520082
 H  -8.12270628  -1.48132113  -4.97295100
 C  -8.51363929   2.35766801  -5.01651033
 H  -8.61060722   3.43751247  -5.02601840
 C  -9.46367831   0.16576465  -5.29269679
 H  -10.30857127  -0.47480621  -5.51764868
 C  -9.60889148   1.54948818  -5.30626226
 H  -10.56894184   1.99546631  -5.54040332
 N  -2.71573313  -0.04490850  -4.18855931
 H  -3.01439185   0.78778205  -3.69949827
 C  -1.50581916  -0.64402977  -3.64007793
 H  -1.69122660  -1.69531985  -3.40302733
 C  -1.20880337   0.14684383  -2.36520707
 C  -0.32607078  -0.60841610  -4.61710709
 H   0.61662281  -0.77914535  -4.10084576
 H  -0.29983012   0.34206388  -5.13993471
 O  -1.73461005   1.22501666  -2.14934438
 O  -0.46486549  -1.66256185  -5.64068466
 H  -0.16583635  -2.51927510  -5.28793491
 N  -0.31309808  -0.42282842  -1.51947538
 H   0.22028018  -1.23301936  -1.79732462
 C   0.18336630   0.26956739  -0.35031552
 H  -0.14068620   1.30689107  -0.41309617
 C   1.70147464   0.14726652  -0.32202261
 C  -0.38685574  -0.33329960   0.92855450
 H   0.11390504   0.11707296   1.79753245
 H  -0.17423772  -1.41007361   0.93213575
 O   2.27628252  -0.83138225  -0.76119745
 O  -1.78087246  -0.06447578   0.93402430
 H  -2.19382496  -0.59373755   1.61969401
 N   2.35142092   1.20542236   0.25616045
 H   1.77421132   1.80869367   0.82125238
 C   3.68868126   1.01811891   0.80194671
 H   4.15473883   0.19745169   0.25561289
 C   3.53436339   0.61996584   2.28879251
 C   4.54340398   2.27168570   0.62857963
 H   4.30128853   2.75766878  -0.31740222
 H   4.36726782   2.99890636   1.42552463
 O   2.49797595   0.80830466   2.90736683
 C   6.07969985   1.98085350   0.57706449
 O   6.77959665   2.97947239   0.37297012
 O   6.42320111   0.79264673   0.75173394
 N   4.64652089   0.06975893   2.83104233
 H   5.55010388   0.18869138   2.35847292
 C   4.76173251  -0.12896136   4.24367058
 H   4.05462528   0.51712338   4.78075319
 C   6.22132143   0.25753970   4.63843270
 C   4.56473636  -1.57818867   4.68196673
 H   4.91086562  -1.64939883   5.71853685
 H   5.20719198  -2.22377142   4.07487686
 O   6.45260981   0.28385269   5.85422526
 C   3.11927220  -2.04603184   4.58717802
 H   2.76192158  -1.95694205   3.56453322
 H   2.49147076  -1.39597912   5.20295196
 C   2.97030762  -3.47724293   5.06937855
 H   3.57684640  -4.14539835   4.44510956
 H   3.35126422  -3.54791798   6.09188288
 N   1.55062105  -3.87454331   5.04664908
 H   1.01771881  -3.48482936   4.28356212
 N   2.01425646  -5.96707219   5.98706649
 H   1.65602820  -6.74251869   6.52006229
 H   2.92152320  -5.62656360   6.25575138
 N  -0.13263140  -5.45760900   5.18455542
 H  -0.80454589  -4.70737319   5.09980972
 H  -0.47993725  -6.27639306   5.65907728
 C   1.15121974  -5.09997379   5.42710786
 O   6.99093865   0.50887842   3.68770181
 H  -1.46658987  -1.72188114  -5.82281231
