21
conf-90
 N  -5.47813676  -0.24308765  -5.93550650
 H  -4.84995035  -0.21180087  -6.73918230
 H  -5.84610519  -1.19353283  -5.87887569
 H  -6.25186224   0.39833209  -6.10310368
 C  -4.76028409   0.08788479  -4.69054024
 H  -4.27667014   1.06474176  -4.79515854
 C  -3.69189160  -0.97954009  -4.46466012
 C  -5.73176645   0.16399707  -3.50542033
 H  -6.54311894   0.83088961  -3.81339717
 H  -6.16080864  -0.82765095  -3.35026058
 O  -3.76680863  -2.06725640  -5.04836702
 C  -5.09810682   0.67440731  -2.23697076
 C  -4.82674023  -0.18029522  -1.17207419
 H  -5.08452473  -1.23099811  -1.24766951
 C  -4.73836030   2.01588633  -2.13418889
 H  -4.93925535   2.67454243  -2.97480917
 C  -4.20293540   0.30299028  -0.02308266
 H  -3.98352459  -0.37896450   0.79229405
 C  -4.12520886   2.50433700  -0.98424705
 H  -3.85921309   3.55263543  -0.92120638
 C  -3.85424129   1.64567279   0.07727398
 H  -3.37623866   2.02036017   0.97355261
 N  -2.71416671  -0.67693517  -3.60188367
 H  -2.65678224   0.25315438  -3.20529958
 C  -1.79828709  -1.65237504  -3.02096316
 H  -2.36076855  -2.51504317  -2.65365247
 C  -1.14390009  -0.92283438  -1.85526107
 C  -0.76936723  -2.17428118  -4.02652512
 H   0.05798679  -2.68612840  -3.53878118
 H  -0.39840787  -1.35437262  -4.63377018
 O  -0.93461103   0.28604031  -1.89521601
 O  -1.40337639  -3.13701216  -4.95589766
 H  -1.42185192  -4.02900655  -4.56666537
 N  -0.77471601  -1.68098861  -0.80200415
 H  -1.01479043  -2.65792193  -0.78204267
 C  -0.23621243  -1.08075070   0.40414218
 H  -0.66713983  -0.07536150   0.49273437
 C   1.28164411  -0.91932926   0.29663793
 C  -0.61003187  -1.89253061   1.62708228
 H  -0.24516599  -2.91987424   1.51054447
 H  -1.70011761  -1.91374817   1.71842204
 O   2.05842943  -1.47728411   1.08365514
 O  -0.08991547  -1.30488314   2.80689683
 H   0.85541288  -1.18580153   2.62032248
 N   1.71699231  -0.15266954  -0.73143226
 H   1.02726854   0.42701223  -1.19498345
 C   3.06591602   0.39531539  -0.69589981
 H   3.73651963  -0.38300359  -0.32531008
 C   3.12928560   1.60282319   0.25543788
 C   3.54039771   0.79435908  -2.08484405
 H   3.52361594  -0.08385997  -2.73025698
 H   2.91822408   1.57641069  -2.52245837
 O   2.14201636   2.23457135   0.57970298
 C   5.00121996   1.29698570  -2.01545254
 O   5.29059335   2.24580227  -2.75647173
 O   5.75437943   0.67358226  -1.23546214
 N   4.36858674   1.87556141   0.75427989
 H   5.19046060   1.39417437   0.38543048
 C   4.49621861   2.64125871   1.95939370
 H   3.65236892   3.32846864   2.02913473
 C   5.85039607   3.43572857   1.99597981
 C   4.56522325   1.76466193   3.22140570
 H   4.57783061   2.43947147   4.07993132
 H   5.51971828   1.23019540   3.21115159
 O   6.81019656   2.88524020   1.43062864
 C   3.42068758   0.76391002   3.32308481
 H   3.49133501   0.06895077   2.49604604
 H   2.46172016   1.27444661   3.22320690
 C   3.43711921  -0.02895182   4.61873236
 H   4.44986618  -0.39179293   4.82863879
 H   3.14256196   0.61006280   5.45237258
 N   2.48310841  -1.15135641   4.59081415
 H   1.83471181  -1.21468360   5.36107106
 N   3.86215336  -2.52103111   3.25787447
 H   3.76538202  -3.07085478   2.41603413
 H   4.46033335  -1.71920157   3.13005982
 N   1.80072072  -3.29039998   4.06791049
 H   0.82835697  -3.00451821   4.12953528
 H   1.94862467  -4.12603830   3.52368809
 C   2.72666608  -2.30806633   3.96121546
 O   5.79068946   4.49639297   2.63565633
 H  -2.36475306  -2.81914808  -5.07258206
