21
conf-883
 N  -3.06157988  -3.76600712  -2.65133367
 H  -3.13360901  -4.22486261  -3.56034425
 H  -2.06602900  -3.66433181  -2.42810941
 H  -3.53246012  -4.31701160  -1.93288227
 C  -3.61052924  -2.40029030  -2.69122625
 H  -4.47575841  -2.37204964  -3.35891454
 C  -2.51244569  -1.48118662  -3.21279697
 C  -4.05846209  -1.95145246  -1.29865549
 H  -3.19340180  -1.95609929  -0.63099098
 H  -4.41249799  -0.92060449  -1.35664631
 O  -1.32970454  -1.80031222  -3.11213551
 C  -5.14057120  -2.84483843  -0.74661918
 C  -4.87384378  -3.73534591   0.28842639
 H  -3.87938262  -3.76536721   0.72308202
 C  -6.41479132  -2.83924516  -1.31111314
 H  -6.61814547  -2.16069649  -2.13173382
 C  -5.86033529  -4.59580981   0.76236744
 H  -5.62899381  -5.28475783   1.56615929
 C  -7.41154866  -3.68331555  -0.83230585
 H  -8.39837141  -3.65291081  -1.28016145
 C  -7.13521967  -4.56860081   0.20536610
 H  -7.90708063  -5.23301997   0.57673248
 N  -2.90525106  -0.29453184  -3.72691010
 H  -3.88138849  -0.13204345  -3.89686525
 C  -1.95521418   0.58284202  -4.39485190
 H  -1.17554866  -0.05433235  -4.82257457
 C  -1.31409544   1.51902435  -3.35908374
 C  -2.62904023   1.40117389  -5.48195217
 H  -1.89680164   2.05274227  -5.95463921
 H  -3.42802638   1.99778096  -5.04532064
 O  -1.53446560   2.72291244  -3.33339124
 O  -3.23572065   0.52901360  -6.52563707
 H  -3.50093743   1.00613449  -7.33762665
 N  -0.50309487   0.90786080  -2.45805988
 H  -0.29570830  -0.08183928  -2.53568755
 C   0.24765990   1.66431897  -1.49211413
 H   0.09782333   2.72233014  -1.70850580
 C   1.71983101   1.27433275  -1.58659423
 C  -0.24463158   1.38077456  -0.07685497
 H   0.41450619   1.87925331   0.64886299
 H  -0.18523792   0.29706267   0.09556486
 O   2.06630454   0.12269858  -1.77912893
 O  -1.57863784   1.86199546   0.00068742
 H  -1.95852855   1.57550957   0.83401740
 N   2.60816549   2.28131290  -1.39017071
 H   2.31304701   3.20736880  -1.08608481
 C   3.96405925   1.97319938  -1.00102755
 H   4.30866240   1.14084137  -1.61757073
 C   4.02459358   1.51843734   0.47351597
 C   4.85817639   3.18783037  -1.24417195
 H   5.90248856   2.96895574  -1.00051708
 H   4.78413449   3.46245417  -2.29979298
 O   3.06558615   1.51591202   1.22765228
 C   4.39875552   4.40540612  -0.39604536
 O   5.29137392   5.01757540   0.20812843
 O   3.18191641   4.69210687  -0.44555974
 N   5.25221025   1.12012661   0.86600429
 H   6.09762709   1.24772422   0.32805645
 C   5.53885578   0.70072936   2.20771503
 H   5.13860859   1.42477398   2.93133524
 C   7.09316360   0.67372803   2.28097666
 C   4.95691852  -0.68043132   2.52809587
 H   5.52336752  -1.42735141   1.97178353
 H   3.93611548  -0.69642983   2.13820899
 O   7.60274278   0.38667566   3.37098663
 C   4.94226229  -0.96250770   4.02485576
 H   4.34227806  -0.18136317   4.50818826
 H   5.95155479  -0.87700177   4.43487356
 C   4.32249812  -2.30035356   4.39976236
 H   4.25890987  -2.37347457   5.48683075
 H   3.29881179  -2.37009341   4.02193507
 N   5.09540473  -3.47246733   3.94538239
 H   5.99598226  -3.59814094   4.38377512
 N   3.90184900  -3.80584864   1.96758129
 H   3.93329870  -4.17089947   1.02757157
 H   3.59847878  -2.84158014   2.02157545
 N   5.72853440  -5.19403997   2.52750402
 H   6.15803933  -5.64754243   3.32669183
 H   5.40293232  -5.84710907   1.82677947
 C   4.90119486  -4.15305878   2.81193987
 O   7.67906363   0.95614610   1.21329205
 H  -2.59858342  -0.17001240  -6.78887671
