21
conf-433
 N  -6.14088722  -3.94908899  -3.62279614
 H  -5.58236573  -4.34147341  -4.38428602
 H  -5.90082467  -4.45622459  -2.77014930
 H  -7.13280105  -4.07295918  -3.81834441
 C  -5.78131189  -2.52573350  -3.47515575
 H  -6.21022114  -1.96513075  -4.31438313
 C  -4.26767402  -2.43698048  -3.66126399
 C  -6.32572138  -1.91574308  -2.17815156
 H  -6.05569181  -0.85565131  -2.15900195
 H  -7.41812040  -1.96408682  -2.24268765
 O  -3.69661752  -3.29275516  -4.35510318
 C  -5.86154274  -2.60617668  -0.92308772
 C  -6.54852549  -3.71314869  -0.42959935
 H  -7.44647798  -4.05447763  -0.93620182
 C  -4.74007622  -2.15910541  -0.21709439
 H  -4.21321541  -1.27959246  -0.56071095
 C  -6.10138652  -4.39257600   0.70296829
 H  -6.64509622  -5.26250831   1.05176998
 C  -4.29347932  -2.82829637   0.91864539
 H  -3.41151917  -2.45960436   1.43112173
 C  -4.96763263  -3.95366612   1.38034800
 H  -4.61816345  -4.48010101   2.26129302
 N  -3.61094573  -1.42145511  -3.10487948
 H  -4.06318292  -0.71612036  -2.54385860
 C  -2.16065608  -1.37495504  -3.01597928
 H  -1.77503997  -2.35749270  -2.72689290
 C  -1.87403712  -0.36120824  -1.90689612
 C  -1.51176321  -0.99545031  -4.34226104
 H  -0.47189594  -0.70416158  -4.21196611
 H  -2.06978285  -0.19399322  -4.81444723
 O  -2.75597826   0.36260879  -1.46600308
 O  -1.54159589  -2.14556678  -5.27081149
 H  -0.75733735  -2.70641454  -5.14203223
 N  -0.60723641  -0.31897091  -1.45056961
 H   0.14438702  -0.85801486  -1.85176559
 C  -0.20461883   0.63884068  -0.44478338
 H  -0.63027408   1.61692352  -0.68431477
 C   1.33631556   0.67929214  -0.50656534
 C  -0.70775154   0.24564884   0.94090213
 H  -0.16311424  -0.63356735   1.30902859
 H  -1.76716991  -0.01172747   0.84235525
 O   1.96966063  -0.12719626  -1.16126535
 O  -0.53272897   1.37290063   1.79808285
 H  -0.61668728   1.08122859   2.70999068
 N   1.91236463   1.65884419   0.21694557
 H   1.37262943   2.18841012   0.88708049
 C   3.35350577   1.74314713   0.35010488
 H   3.75399968   0.75154619   0.59483794
 C   3.61081735   2.69911865   1.52702327
 C   4.02282168   2.19707693  -0.95404055
 H   3.39782942   1.90877762  -1.79880256
 H   4.13962463   3.28247739  -0.98193671
 O   2.70634217   3.24474209   2.13339668
 C   5.42372970   1.55897489  -1.17292681
 O   5.71498557   1.32366430  -2.35114200
 O   6.13501618   1.37884519  -0.15825241
 N   4.91320505   2.86980750   1.81868057
 H   5.60608225   2.37902245   1.24515044
 C   5.33722187   3.77526779   2.85162355
 H   4.54178635   4.50526991   3.00418053
 C   6.63570231   4.49875522   2.33999208
 C   5.70546875   3.07307564   4.14655686
 H   6.10402494   3.83854049   4.82236630
 H   6.52408618   2.38312311   3.92877696
 O   6.47493647   5.67576497   1.98422257
 C   4.52935123   2.35879038   4.79486759
 H   4.22851802   1.51619360   4.17993470
 H   3.67346118   3.03497986   4.85167556
 C   4.85057620   1.85015436   6.19354861
 H   5.07249765   2.69089644   6.85455750
 H   3.98665492   1.33964874   6.62951141
 N   6.02802202   0.96221961   6.26537505
 H   6.91405364   1.44875515   6.25172184
 N   4.91648361  -0.80118274   5.21841568
 H   4.89239446  -1.78928024   5.02437324
 H   4.04473521  -0.39392078   5.51468546
 N   7.24242043  -0.87342829   5.51689207
 H   8.00481077  -0.58185888   6.11376053
 H   7.22293579  -1.86069999   5.30866116
 C   6.05218442  -0.24462883   5.68087077
 O   7.66165679   3.78963400   2.32618973
 H  -2.36354429  -2.68826671  -5.01162236
