83
85
N          0.55278        3.85221        3.38827
H          1.34863        3.96692        2.60896
H          1.02724        3.74627        4.28705
H          0.09508        2.95802        3.14749
C         -0.43156        4.99994        3.43589
H         -0.86633        5.00407        4.43938
C         -1.60935        4.62240        2.51602
C          0.26437        6.34690        3.15965
H          0.63802        6.33256        2.12831
O         -2.63317        4.14602        3.02166
C         -0.75104        7.49036        3.30909
H         -1.14056        7.54442        4.33307
H         -1.60145        7.37662        2.62864
H         -0.27241        8.44862        3.08470
C          1.46790        6.55287        4.09510
H          1.17391        6.48546        5.15101
H          2.27096        5.83259        3.90323
H          1.89390        7.54880        3.93902
N         -1.44416        4.78899        1.18692
H         -0.50279        4.95346        0.79812
C         -2.51214        4.42481        0.24697
H         -3.45857        4.60713        0.76644
C         -2.42192        2.91085       -0.06326
C         -2.41875        5.28296       -1.00957
H         -3.21713        5.02149       -1.71072
H         -2.52596        6.33833       -0.74477
H         -1.45151        5.14316       -1.50157
O         -2.09485        2.49126       -1.18254
N         -2.70157        2.11040        0.99468
H         -2.88741        2.60775        1.86790
C         -2.25056        0.72337        1.11655
H         -2.58768        0.38026        2.10153
C         -0.69628        0.70272        1.18820
C         -2.92479       -0.19096        0.08295
H         -4.01011       -0.07000        0.18854
H         -2.64564        0.09869       -0.93531
O         -0.10735        1.59250        1.81653
O         -2.51985       -1.52969        0.37443
H         -3.03113       -2.13728       -0.18209
N         -0.04608       -0.29732        0.56456
H         -0.60399       -1.06112        0.18832
C          1.42174       -0.41253        0.57253
H          1.76517       -0.12708        1.57070
C          1.96114        0.58379       -0.48656
C          1.82480       -1.85530        0.24782
H          1.43900       -2.09252       -0.75151
H          1.32095       -2.51969        0.96328
O          1.81140        0.32360       -1.69198
C          3.34178       -2.13244        0.27512
H          3.82159       -1.44642       -0.43790
C          3.96346       -1.90029        1.66119
H          3.48560       -2.53530        2.41828
H          3.87741       -0.85873        1.99246
H          5.03072       -2.14644        1.65014
C          3.61197       -3.56604       -0.20641
H          3.15452       -4.30107        0.46805
H          3.20740       -3.73455       -1.21107
H          4.68740       -3.77115       -0.23909
N          2.52865        1.69201        0.01400
H          2.53306        1.77695        1.02646
C          2.76230        3.03039       -0.58970
H          3.83950        3.23499       -0.53763
C          2.04105        3.98361        0.42321
C          2.23912        3.23542       -2.00911
H          2.20015        4.32010       -2.14376
H          1.19697        2.92041       -2.00875
O          1.15417        4.76032        0.01819
C          3.04989        2.60394       -3.16661
H          3.68078        3.37795       -3.61963
H          3.72732        1.82931       -2.79458
C          2.20474        1.93138       -4.27764
H          1.99075        0.89700       -4.01275
H          2.75992        1.90684       -5.21900
N          0.92166        2.59832       -4.56413
H          0.95300        3.42458       -5.14670
N         -0.36879        1.31756       -3.09196
H         -1.13250        1.38790       -2.42176
H          0.45626        0.83216       -2.72028
N         -1.27822        3.19821       -4.06685
H         -1.14523        4.08638       -4.52948
H         -1.97221        3.19001       -3.32435
C         -0.21599        2.37789       -3.89005
O          2.41259        3.80032        1.63112
