21
conf-879
 N  -3.20586300  -0.25101547   4.51767675
 H  -3.85033818  -0.97027546   4.18303527
 H  -2.25907381  -0.63620601   4.50892524
 H  -3.44334642  -0.02124769   5.48111867
 C  -3.26308876   0.97603900   3.68009276
 H  -4.29754110   1.32879054   3.60885629
 C  -2.78263120   0.70697446   2.31217304
 C  -2.40296656   2.08903164   4.30039416
 H  -2.82346663   2.35484691   5.27280211
 H  -1.39884450   1.69854048   4.46461511
 O  -1.67028303   0.00729669   2.18516109
 C  -2.28388992   3.33958236   3.43851312
 H  -3.26527553   3.75755483   3.21164052
 H  -1.75946161   3.10922224   2.51102169
 C  -1.45946417   4.33198536   4.28661282
 O  -0.22646839   4.26652286   4.13532649
 O  -2.11691948   5.06188766   5.04649726
 N  -3.41785474   1.19066938   1.26585210
 H  -4.25190609   1.74622819   1.42516879
 C  -3.08058461   0.96405071  -0.15913830
 H  -2.99176812  -0.10872296  -0.31477963
 C  -1.74199171   1.62268688  -0.42464606
 C  -4.17391598   1.55705208  -1.04283121
 H  -3.98044646   1.23213534  -2.07202850
 H  -4.09675280   2.64430491  -1.04300519
 O  -1.61678798   2.84014610  -0.45548757
 C  -5.56817472   1.17516507  -0.61280872
 C  -6.64629170   2.01758462  -0.60193182
 H  -6.71272082   3.05505191  -0.88966269
 C  -6.04000444  -0.09576956  -0.12337105
 C  -7.41031896   0.04984820   0.16362893
 C  -5.43450873  -1.34602968   0.10048394
 H  -4.39032121  -1.51289727  -0.11800812
 N  -7.75671121   1.34589461  -0.13939728
 H  -8.67418186   1.73694745  -0.04619809
 C  -7.57226770  -2.20539075   0.88442844
 H  -8.14365095  -3.03835863   1.27613145
 C  -8.19736162  -0.98730597   0.67060185
 H  -9.24989498  -0.83802429   0.88327593
 C  -6.20681536  -2.38035466   0.60082854
 H  -5.74830088  -3.34544823   0.78099136
 N  -0.67689563   0.75963269  -0.45514675
 H  -0.78509816  -0.15522086  -0.88474563
 C   0.63101060   1.31282222  -0.76519808
 H   0.48787165   2.23298487  -1.33427633
 C   1.35552368   0.27714840  -1.63477548
 C   1.37692342   1.70919249   0.51147155
 H   0.69182006   2.36577806   1.06113844
 O   0.85117055  -0.80012317  -1.90275493
 C   1.80861547   0.53540683   1.36713167
 H   0.94734742  -0.04230112   1.70632402
 H   2.35601329   0.89097587   2.24045393
 H   2.45773644  -0.12740094   0.79146373
 O   2.51916068   2.46192066   0.09316291
 H   3.03862391   2.68233466   0.87012501
 N   2.55910199   0.67631658  -2.09432334
 H   2.93662776   1.54217006  -1.72760799
 C   3.41801349  -0.22100372  -2.82365433
 H   2.96050965  -1.21748300  -2.76283409
 C   4.78492227  -0.35321865  -2.18689269
 C   3.54779346   0.16008379  -4.29676231
 H   4.30879629  -0.48109332  -4.74129073
 H   3.90629429   1.18892083  -4.37468318
 O   5.72379906  -0.89213428  -2.71138574
 C   2.22435942  -0.00367958  -5.02783625
 H   1.82971190  -1.00958031  -4.84773065
 H   1.49546560   0.69848100  -4.62494214
 C   2.32601368   0.21509670  -6.53718161
 H   2.96250232  -0.54698281  -6.99373876
 H   1.33874466   0.11159689  -6.99117348
 N   2.87852147   1.51540986  -6.92261789
 H   3.88509513   1.52495932  -6.84975523
 N   0.94865371   2.70200555  -6.36279953
 H   0.60501003   3.61922537  -6.12021798
 H   0.51176363   2.30119315  -7.17913280
 N   2.99466569   3.63999958  -5.84406295
 H   3.99220747   3.43883391  -5.88232471
 C   2.33292644   2.67299027  -6.36330198
 O   4.83752461   0.15491029  -0.93737705
 H   5.73288708  -0.00788419  -0.61158075
 H  -1.23547074   0.14268994   1.29842629
