21
conf-549
 N  -3.85806963  -1.05063502   4.16157329
 H  -4.33838353  -1.64904887   3.48543750
 H  -3.11142420  -1.59086335   4.59868961
 H  -4.54507573  -0.75409659   4.87505529
 C  -3.30575019   0.17163155   3.52983695
 H  -4.12145200   0.81583949   3.20254093
 C  -2.47727970  -0.21644249   2.35988444
 C  -2.43941021   0.98217630   4.52408403
 H  -1.46454791   0.50062539   4.62426385
 H  -2.26797756   1.96468601   4.07866262
 O  -1.75026415  -1.29921894   2.46204168
 C  -3.12335128   1.15381701   5.87787203
 H  -2.68229705   1.98391725   6.43314223
 H  -3.05056182   0.24301172   6.47744008
 C  -4.58309745   1.48019334   5.55015448
 O  -4.79749705   2.61122671   5.09965512
 O  -5.41208422   0.56241598   5.72496679
 N  -2.45806346   0.55851118   1.29709536
 H  -2.96183820   1.44214094   1.34039894
 C  -1.78120119   0.30156578  -0.00570541
 H  -2.05397901  -0.69656550  -0.34837037
 C  -0.28514302   0.36479033   0.22738730
 C  -2.23644674   1.35364595  -1.00502050
 H  -1.65158112   1.24301220  -1.92477932
 H  -1.98549173   2.33976231  -0.61717984
 O   0.30689502   1.42864798   0.38361015
 C  -3.70569790   1.26565228  -1.30110105
 C  -4.55992138   0.20655459  -1.12885902
 H  -4.38840188  -0.78097089  -0.73730466
 C  -4.49484126   2.33148328  -1.86881957
 C  -5.80901402   1.85671566  -2.00870282
 C  -4.18843444   3.64152256  -2.26022640
 H  -3.18206158   4.03533356  -2.16945883
 N  -5.82454751   0.56185270  -1.55204128
 H  -6.62655670  -0.03975168  -1.54916383
 C  -6.51427512   3.93538682  -2.91065450
 H  -7.28394681   4.57900245  -3.31922509
 C  -6.83962506   2.64300074  -2.52984467
 H  -7.84713763   2.25439447  -2.62901986
 C  -5.20280220   4.42897417  -2.77770598
 H  -4.98692769   5.44511818  -3.08595599
 N   0.32463968  -0.84601446   0.39536918
 H  -0.04491172  -1.65580627  -0.08558406
 C   1.75476327  -0.90090027   0.69172966
 H   1.93344884  -0.10551763   1.41702248
 C   2.55058010  -0.65720064  -0.59027965
 C   2.08651004  -2.25421101   1.32492883
 H   1.88153539  -3.03187203   0.58743808
 O   2.96700014  -1.56257367  -1.29981070
 C   3.52297973  -2.33111411   1.81127064
 H   4.22703121  -2.18396819   0.99207789
 H   3.70279338  -3.30855937   2.26245583
 H   3.69169186  -1.55753592   2.56385123
 O   1.20185351  -2.51649357   2.40888044
 H   1.45309888  -1.93225586   3.12758672
 N   2.75591566   0.65109186  -0.90563546
 H   2.16471394   1.34047105  -0.46048898
 C   3.30053792   0.96332591  -2.21211226
 H   2.72146195   0.44130751  -2.98316154
 C   4.71973263   0.46087489  -2.38875601
 C   3.22350099   2.46657834  -2.50024572
 H   2.17209510   2.75877680  -2.41855152
 H   3.51493630   2.62009060  -3.54355144
 O   5.21931709   0.28232664  -3.47246933
 C   4.08087284   3.34171430  -1.60114115
 H   3.81421652   3.18824274  -0.55557217
 H   5.13230275   3.06783030  -1.70444639
 C   3.91765562   4.81630297  -1.93549419
 H   4.17992526   4.98457617  -2.98804985
 H   2.87227147   5.10436174  -1.80522182
 N   4.74839521   5.61815412  -1.05816305
 H   5.65143187   5.22748350  -0.85151681
 N   3.61333755   7.57686974  -1.65715490
 H   3.72071034   8.57852040  -1.70523651
 H   3.31259031   7.16276799  -2.52384140
 N   5.57060423   7.75603243  -0.45184848
 H   6.28108336   7.19559848   0.00977550
 C   4.72262147   7.00233731  -1.04783636
 O   5.39245169   0.28446621  -1.23265538
 H   6.27361551  -0.01884188  -1.48440683
 H  -0.98366392  -1.34158603   1.81871737
