21
conf-474
 N  -4.17844889   0.20486201   4.05855094
 H  -4.91723580  -0.12713372   3.43496797
 H  -3.59051029  -0.58771481   4.32893987
 H  -4.61443059   0.57578774   4.90169682
 C  -3.34301406   1.25393367   3.41477928
 H  -3.98384865   2.04813539   3.02892940
 C  -2.60707587   0.66805160   2.26481949
 C  -2.33830111   1.83483124   4.41814149
 H  -1.75047210   1.01632254   4.82762433
 H  -1.63716118   2.49159104   3.89643476
 O  -1.94082397  -0.45625513   2.49181863
 C  -2.97972647   2.62915452   5.55351568
 H  -3.60115926   1.99003284   6.18760630
 H  -3.57719178   3.45216296   5.15940535
 C  -1.79914209   3.17588820   6.37974508
 O  -1.37290460   2.41671227   7.26922816
 O  -1.37975116   4.30050364   6.05165268
 N  -2.57410909   1.25668053   1.09255834
 H  -2.99629783   2.17662339   0.98137098
 C  -2.01820943   0.68140160  -0.16112716
 H  -2.35353404  -0.35737447  -0.23487722
 C  -0.50038932   0.74994693  -0.10483295
 C  -2.53028290   1.46916676  -1.37262428
 H  -2.07218355   2.45868866  -1.35812014
 H  -3.61222308   1.58004242  -1.30635891
 O   0.09543085   1.81681346  -0.09667188
 C  -2.15935654   0.73349540  -2.62516434
 C  -0.89720906   0.63365077  -3.13219428
 H   0.00697641   1.12501388  -2.81781154
 C  -2.97565552  -0.17630084  -3.39290659
 C  -2.13539258  -0.79657951  -4.33460403
 C  -4.33140439  -0.52170150  -3.33977595
 H  -4.99627258  -0.06153263  -2.61727053
 N  -0.87033595  -0.27106099  -4.16819379
 H  -0.01502771  -0.71426393  -4.46301483
 C  -3.94935303  -2.07636574  -5.16756113
 H  -4.35142731  -2.81547355  -5.85000061
 C  -2.60269629  -1.75270145  -5.23417705
 H  -1.94231533  -2.22147897  -5.95581748
 C  -4.80551011  -1.46724517  -4.23089859
 H  -5.85196843  -1.74707349  -4.20873869
 N   0.13157183  -0.46673485   0.03647840
 H  -0.28756051  -1.22938885  -0.48408055
 C   1.59149744  -0.44942058  -0.04726101
 H   1.91714006   0.41375550   0.52462947
 C   2.04902085  -0.23157553  -1.49956079
 C   2.20875544  -1.71623684   0.57103406
 H   3.23930467  -1.79329236   0.21122085
 O   1.58896343  -0.86365557  -2.45182630
 C   2.19115688  -1.65199713   2.08897569
 H   2.76749222  -0.79846996   2.45002734
 H   2.62012146  -2.56676011   2.50170803
 H   1.16611242  -1.55509353   2.45710250
 O   1.57642836  -2.90281994   0.10948637
 H   0.70185301  -2.94134781   0.50149930
 N   2.97349981   0.74781297  -1.64309026
 H   3.29755161   1.23300760  -0.82565888
 C   3.61403756   1.03107490  -2.92022703
 H   2.96462672   0.62992199  -3.69973778
 C   4.93829551   0.29543804  -2.95900765
 C   3.81121516   2.52778285  -3.10057087
 H   4.48311188   2.89181314  -2.32040053
 H   2.83993091   3.00280732  -2.94923456
 O   5.98617879   0.74124092  -2.55799679
 C   4.35506836   2.89953072  -4.47349150
 H   5.34852894   2.47119342  -4.60504753
 H   3.71622601   2.47317367  -5.24886802
 C   4.44069203   4.41175447  -4.65359744
 H   3.44235224   4.84927754  -4.57247776
 H   5.05079792   4.84531246  -3.85950957
 N   4.98449513   4.82455670  -5.94314157
 H   4.33753066   4.65280792  -6.69728396
 N   7.19779231   4.47735941  -5.26429238
 H   8.13799061   4.38033783  -5.61809014
 H   7.09182637   5.23522488  -4.60746942
 N   6.66188371   4.11124185  -7.47784927
 H   5.87844984   4.11044673  -8.12567595
 C   6.28144524   4.46238826  -6.30705551
 O   4.81070843  -0.94988382  -3.45791118
 H   5.68790068  -1.35052760  -3.40527560
 H  -1.27206693  -0.63035172   1.79181154
