21
conf-966
 N  -3.76170632  -2.27615171   3.64574973
 H  -4.73628421  -2.28760652   3.33835691
 H  -3.25028424  -2.97431005   3.10063336
 H  -3.72324006  -2.53896597   4.62862166
 C  -3.12375927  -0.96053302   3.42033661
 H  -3.77718302  -0.16729062   3.79453811
 C  -2.90198177  -0.75987905   1.92808591
 C  -1.77920077  -0.89118928   4.14720970
 H  -1.96112279  -1.09841791   5.20366910
 H  -1.14691755  -1.69582310   3.76601889
 O  -2.47194455  -1.66388924   1.22099133
 C  -1.05102685   0.43949407   3.98923564
 H  -1.65562078   1.28311644   4.32668951
 H  -0.81872789   0.62415133   2.93172706
 C   0.27250124   0.45446698   4.68918594
 O   1.04078287  -0.47609802   4.71599954
 O   0.55834043   1.64093195   5.25690821
 N  -3.19915557   0.48191356   1.44152927
 H  -3.25688008   1.22316532   2.12061652
 C  -2.65842762   0.88808152   0.14533323
 H  -2.72517988   0.01729831  -0.50580726
 C  -1.18998551   1.28234883   0.35210054
 C  -3.45112160   2.06809075  -0.43850973
 H  -3.23316135   2.96037297   0.14847635
 H  -4.50916235   1.83946865  -0.32351713
 O  -0.89784088   2.18704967   1.16810742
 C  -3.16407627   2.30624907  -1.89664311
 C  -3.94281733   1.86710983  -2.93338152
 H  -4.86066921   1.30249361  -2.90668981
 C  -2.05240303   3.00999671  -2.49482976
 C  -2.22900031   2.95534920  -3.89030800
 C  -0.92598768   3.68470233  -1.97848059
 H  -0.75890750   3.74557185  -0.90496718
 N  -3.38092877   2.24937712  -4.13194388
 H  -3.75778211   2.05306011  -5.03938385
 C  -0.25034333   4.21235256  -4.25614503
 H   0.47694052   4.66559937  -4.91499625
 C  -1.33988298   3.54929154  -4.79226687
 H  -1.50414850   3.48962490  -5.86145203
 C  -0.03318094   4.26324549  -2.87376597
 H   0.84754546   4.77721253  -2.50820502
 N  -0.29485793   0.58206419  -0.36847802
 H  -0.59000877  -0.10022886  -1.04565592
 C   1.12331965   0.80917615  -0.23566228
 H   1.28296127   1.89376563  -0.21617996
 C   1.76737507   0.16473963  -1.46172906
 C   1.67222745   0.28326628   1.11837055
 H   1.16377699   0.91112005   1.85593717
 O   1.19314032  -0.69756656  -2.10280631
 C   1.37643539  -1.18148704   1.37490752
 H   0.31335760  -1.39646921   1.24356545
 H   1.66641929  -1.44273715   2.39533244
 H   1.93913711  -1.80586671   0.67426219
 O   3.05244329   0.56212555   1.24718217
 H   3.52858759   0.01481807   0.61465046
 N   3.03083865   0.57510206  -1.72841731
 H   3.42569364   1.34258808  -1.21123799
 C   3.71536484   0.10223121  -2.91266085
 H   3.55215424  -0.97410683  -2.98615307
 C   5.21015516   0.31295678  -2.82907339
 C   3.17756736   0.72764863  -4.20855387
 H   2.13888038   0.41001496  -4.30653301
 H   3.73804549   0.28433752  -5.03371109
 O   5.99395498  -0.15217015  -3.61714955
 C   3.27637307   2.24348656  -4.25180804
 H   2.82430607   2.68332297  -3.35936921
 H   4.32601052   2.54068525  -4.26002790
 C   2.58444006   2.83789392  -5.47538337
 H   1.51395939   2.61337564  -5.43776042
 H   2.70611209   3.92306242  -5.48030948
 N   3.07658580   2.32602934  -6.75190967
 H   2.68136558   1.42384418  -6.96769857
 N   5.08051532   3.52239442  -6.65299918
 H   6.01546964   3.55811287  -7.03136913
 H   4.54723004   4.36638787  -6.79949004
 N   5.12145027   1.39185877  -7.53991146
 H   4.52112668   0.58555222  -7.70356660
 C   4.44369554   2.34884931  -7.02469752
 O   5.58757985   1.09614568  -1.79721478
 H   1.43047523   1.53918419   5.66339120
 H   6.55085972   1.16397568  -1.84308654
