116
118
N         -1.09123       -6.05690        0.54945
H         -0.76850       -5.45857        1.37760
H         -2.10107       -6.00032        0.36772
H         -0.78808       -7.03003        0.72118
C         -0.33867       -5.58630       -0.65539
H          0.43697       -4.91671       -0.28830
C         -1.33402       -4.82377       -1.53232
C          0.34212       -6.81712       -1.32085
H         -0.40996       -7.35518       -1.90908
O         -2.50050       -5.19755       -1.61262
C          1.50154       -6.37554       -2.20772
H          1.16556       -5.68439       -2.98962
H          1.95549       -7.24726       -2.68539
H          2.26748       -5.87712       -1.60109
O          0.74371       -7.71954       -0.30115
H          1.34671       -7.23759        0.31323
N         -0.83555       -3.71945       -2.13372
H          0.14184       -3.46287       -2.04268
C         -1.67434       -2.70059       -2.73216
H         -2.53096       -3.18550       -3.20741
C         -0.80339       -1.90671       -3.71293
C         -2.16211       -1.66636       -1.66145
H         -1.27322       -1.10744       -1.34243
H         -2.82122       -0.94863       -2.16500
O          0.41115       -1.81728       -3.51893
C         -2.86028       -2.26554       -0.46441
C         -4.25670       -2.33944       -0.41441
H         -4.84450       -1.95295       -1.24398
C         -2.12426       -2.77089        0.61643
H         -1.03991       -2.74152        0.60213
C         -4.90391       -2.90312        0.68555
H         -5.98889       -2.95136        0.70603
C         -2.76537       -3.33334        1.72116
H         -2.16546       -3.70996        2.54453
C         -4.16021       -3.40040        1.75813
H         -4.66516       -3.83226        2.61773
N         -1.45557       -1.23332       -4.68757
H         -2.46376       -1.30191       -4.74799
C         -0.79950       -0.19642       -5.50108
H          0.23515       -0.52439       -5.63437
C         -0.82230        1.12944       -4.69983
C         -1.49970       -0.04694       -6.84495
H         -0.97719        0.69227       -7.45764
H         -2.52399        0.31321       -6.70858
H         -1.51100       -1.00268       -7.37678
O         -1.62886        2.02370       -4.94599
N          0.07077        1.18516       -3.68274
H          0.69956        0.40696       -3.49235
C          0.12702        2.30719       -2.76151
H          0.30596        3.22835       -3.32985
C          1.33868        2.06069       -1.84703
C         -1.18975        2.48215       -1.93236
H         -0.96192        2.53545       -0.86374
H         -1.79573        1.58416       -2.08021
O          1.95677        0.98622       -1.88961
C         -2.01535        3.70470       -2.33518
H         -2.17993        3.70144       -3.41857
H         -3.00920        3.67839       -1.87213
C         -1.37066        5.01317       -1.95082
O         -0.27050        5.15004       -1.43485
O         -2.15097        6.06265       -2.24553
N          1.64439        3.04881       -0.98245
H          1.06769        3.89243       -1.00089
C          2.80612        3.00257       -0.08444
H          3.61360        2.50086       -0.63440
C          2.52698        2.13332        1.17169
C          3.22255        4.41913        0.29725
H          4.08664        4.39219        0.96407
H          2.41313        4.93320        0.82520
H          3.48035        4.98870       -0.59979
O          2.77309        2.54216        2.32155
N          2.02316        0.92576        0.88015
H          2.03915        0.65084       -0.10642
C          1.50362       -0.03928        1.82292
H          1.66717        0.35523        2.82661
C          2.35433       -1.32419        1.70997
C         -0.01095       -0.21858        1.60323
H         -0.16488       -0.59615        0.58530
H         -0.40611       -0.98366        2.28291
O          3.46615       -1.28703        1.16501
C         -0.83183        1.07059        1.80089
H         -0.42272        1.83121        1.12248
C         -2.29705        0.82370        1.41536
H         -2.74730        0.04423        2.04119
H         -2.38749        0.49539        0.37451
H         -2.88982        1.73749        1.53476
C         -0.72129        1.61495        3.23300
H         -1.02674        0.85609        3.96576
H         -1.37507        2.48347        3.36618
H          0.29803        1.94028        3.46896
N          1.86764       -2.42914        2.30227
H          0.88287       -2.50563        2.54091
C          2.51498       -3.73525        2.17369
H          3.10416       -3.72871        1.25142
C          1.41972       -4.81119        1.97656
C          3.46154       -4.06175        3.34471
H          3.68530       -5.13038        3.27334
H          2.91806       -3.91995        4.28945
O          1.80722       -5.92151        1.56189
C          4.78321       -3.24712        3.32269
H          4.86779       -2.71601        2.37177
H          5.63658       -3.93492        3.36480
C          5.00756       -2.26335        4.47980
H          5.96873       -1.75565        4.35349
H          5.04546       -2.80241        5.43175
N          3.98707       -1.21038        4.66388
H          3.21617       -1.42016        5.28280
N          4.80286        0.29441        3.08289
H          4.75786        1.25527        2.75853
H          4.77614       -0.38709        2.32131
N          3.27492        1.00992        4.66522
H          2.85030        0.92401        5.57738
H          2.98838        1.77017        4.03729
C          4.01320        0.02103        4.13933
O          0.21585       -4.44314        2.19569
H         -1.66932        6.87189       -1.98709
