21
conf-404
 N  -8.00646695   0.29545148   1.63246359
 H  -8.01516340   0.98070672   0.88141125
 H  -8.22254170   0.80138080   2.48236635
 C  -6.68680472  -0.28860447   1.73328424
 H  -6.75471204  -1.20667749   2.33026350
 C  -5.64418409   0.61174143   2.40690540
 C  -6.17032984  -0.69637708   0.33901675
 H  -5.25419523  -1.28869654   0.41659169
 H  -6.94245087  -1.30425441  -0.13496154
 O  -5.78173700   1.81310779   2.56347837
 C  -5.94687708   0.51304815  -0.55146321
 N  -4.67834385   0.72170581  -0.95973624
 H  -4.51811027   1.54528592  -1.50963064
 H  -3.91207321   0.21386868  -0.54765523
 O  -6.87578263   1.23079421  -0.89061720
 N  -4.51757564  -0.05599293   2.80607243
 H  -4.40258562  -0.99312136   2.46408135
 C  -3.29829725   0.69080452   3.08647579
 H  -3.60208397   1.63451471   3.53792833
 C  -2.57881464   0.99889743   1.74253964
 C  -2.37745729  -0.05708354   4.06310639
 H  -2.19083487  -1.03932390   3.61525963
 O  -2.16758378   0.07948854   0.98625810
 C  -3.05463695  -0.23999648   5.42613374
 H  -4.09325122  -0.54168267   5.28698072
 H  -3.08472917   0.73924033   5.91537042
 C  -1.04962684   0.68052664   4.22228751
 H  -1.22819570   1.70496563   4.56452917
 H  -0.40776982   0.19018807   4.95468268
 H  -0.50406888   0.72746402   3.28292046
 C  -2.35967147  -1.25564578   6.32128778
 H  -2.87375022  -1.34329292   7.28034242
 H  -2.35344951  -2.24426020   5.85338530
 H  -1.32310198  -0.98239550   6.52381696
 N  -2.43720288   2.32031276   1.46595865
 H  -2.74975559   3.00071598   2.13669095
 C  -1.71808533   2.74650759   0.27481657
 H  -2.16124935   2.19135662  -0.56025423
 C  -0.27266248   2.26449930   0.35579368
 C  -1.81341202   4.24590795   0.09839975
 H  -1.29927003   4.56459288  -0.81078681
 H  -2.85869487   4.55030328   0.02909324
 H  -1.35517673   4.75305615   0.94850311
 O   0.42859298   2.40064934   1.36262989
 N   0.17925355   1.61292242  -0.73760772
 H  -0.43862390   1.43886657  -1.51166973
 C   1.48932060   0.98432940  -0.74248021
 H   2.12270815   1.59922712  -0.10551315
 C   1.99953105   0.97563127  -2.17312165
 C   1.47304490  -0.44231483  -0.16023752
 H   0.86200060  -1.07466448  -0.80816233
 O   1.38102086   0.36542234  -3.05555525
 C   2.87207232  -0.99797083   0.02342305
 H   3.35774168  -1.14099917  -0.94473331
 H   2.84286677  -1.95931784   0.53890503
 H   3.47454683  -0.31052500   0.61983355
 O   0.80296737  -0.42965114   1.16630361
 H   0.80249835   0.52633783   1.44892265
 N   3.12398111   1.66982817  -2.40858780
 H   3.64821500   2.07367460  -1.64727706
 C   3.65781006   1.85410691  -3.74804993
 H   2.80635982   1.97736408  -4.41903863
 C   4.47607752   0.62036992  -4.16153141
 C   4.53279883   3.09728836  -3.74447566
 H   3.90594051   3.97154038  -3.56416251
 H   5.03111777   3.20875327  -4.71428517
 O   5.68297262   0.54861076  -3.96335245
 O   5.47513496   3.04058152  -2.69165915
 H   6.04418115   2.29070022  -2.90928865
 N   3.75937929  -0.37428298  -4.72729982
 H   2.76863737  -0.26397801  -4.86843210
 C   4.37104470  -1.63828837  -5.03853895
 H   4.50551838  -1.77975591  -6.11344232
 H   5.36280554  -1.63534519  -4.58369656
 C   3.61010826  -2.86458264  -4.54449582
 O   3.90117549  -3.97963178  -4.94817315
 N   2.64945658  -2.64053450  -3.61579226
 H   2.38113118  -1.69160612  -3.39613686
 C   1.74323029  -3.69815918  -3.25158223
 H   1.99904805  -4.54880839  -3.89592783
 C   0.30318177  -3.35483989  -3.58922698
 C   1.88925868  -4.13973457  -1.80034949
 H   1.73150934  -3.28139327  -1.13475507
 H   1.09373147  -4.85235816  -1.58316895
 O  -0.65745978  -3.89505800  -3.10614329
 C   3.24627437  -4.76514990  -1.52468461
 H   3.42363276  -5.56895948  -2.24854894
 H   4.02806547  -4.02019666  -1.68744170
 C   3.34926895  -5.31937960  -0.11360920
 H   2.55510288  -6.05930754   0.03818304
 H   3.17124450  -4.51351527   0.61016874
 C   4.68466921  -5.97096258   0.19327943
 H   4.62886960  -6.45880399   1.17037072
 H   4.87588744  -6.75967997  -0.54924324
 N   5.75740694  -4.97134068   0.25816074
 H   5.99666551  -4.66241566  -0.67603501
 H   6.59859029  -5.39646554   0.62715935
 O   0.20541471  -2.41108845  -4.54970161
 H  -0.73921271  -2.29484233  -4.71928257
 H  -0.15901995  -0.62825609   1.04163715
