21
conf-684
 N  -8.86304786   1.65900089   2.81850953
 H  -8.59108824   2.50254882   2.32224999
 H  -9.10204662   1.96377209   3.75559749
 C  -7.70811786   0.77543140   2.86200870
 H  -7.92917227  -0.05652474   3.54219363
 C  -6.42973496   1.47555472   3.33146059
 C  -7.44342417   0.20659765   1.45686781
 H  -7.33154075   1.04486047   0.76803477
 H  -6.51071634  -0.36503702   1.44473035
 O  -6.22828865   2.66030657   3.13606315
 C  -8.59113184  -0.64114398   0.92786301
 N  -8.89057896  -1.73725426   1.68310582
 H  -9.55617214  -2.38554713   1.29598363
 H  -8.25494797  -2.05194591   2.39347741
 O  -9.20962689  -0.34410807  -0.07813030
 N  -5.51723063   0.65022027   3.94765053
 H  -5.72835134  -0.32912217   3.83646033
 C  -4.09499807   0.94406891   3.76738735
 H  -4.02338618   2.02396335   3.66389690
 C  -3.64042716   0.27550443   2.45793486
 C  -3.25939454   0.51057621   4.98797126
 H  -3.78717473   0.93503936   5.84849892
 O  -4.14326886  -0.78608299   2.05084463
 C  -1.84307624   1.09109002   4.98538053
 H  -1.30523922   0.74453863   4.09800370
 H  -1.31611677   0.65651239   5.84258635
 C  -3.20504495  -1.00651811   5.14174144
 H  -2.71518683  -1.44921139   4.27229912
 H  -2.64715416  -1.28118948   6.03771138
 H  -4.20680468  -1.43598297   5.21497511
 C  -1.77026157   2.60651163   5.10114250
 H  -0.73436324   2.93854398   5.18398831
 H  -2.20883460   3.11162444   4.23282781
 H  -2.30185217   2.95783441   5.99017816
 N  -2.62917533   0.90453711   1.81668642
 H  -2.20998392   1.74827244   2.16807218
 C  -2.06405227   0.39205589   0.59106437
 H  -1.87808239  -0.67979978   0.71379076
 C  -0.74199505   1.13288683   0.40867429
 C  -2.99652381   0.58749517  -0.60562390
 H  -2.56657624   0.14232145  -1.50352278
 H  -3.94870202   0.10114671  -0.38451373
 H  -3.17645167   1.65010132  -0.78352483
 O  -0.47793670   2.12623524   1.09390374
 N   0.06656660   0.66499869  -0.54666555
 H  -0.12748119  -0.21914426  -0.99747334
 C   1.30666587   1.30422615  -0.99495564
 H   1.12139238   2.34735283  -1.25571171
 C   1.68711519   0.52959037  -2.24550076
 C   2.41282173   1.27496768   0.08767287
 H   2.28839052   0.35179347   0.65259793
 O   1.41301310  -0.65760414  -2.37242964
 C   3.84149647   1.40310976  -0.40223421
 H   4.10499979   0.56267095  -1.04968922
 H   4.52796628   1.38801525   0.44626038
 H   3.99367500   2.33627762  -0.94883534
 O   2.11666640   2.39226035   1.02283702
 H   1.10056973   2.44465109   1.13466322
 N   2.35907258   1.21939915  -3.20107823
 H   2.71792520   2.13588402  -2.98918447
 C   2.92089062   0.50192900  -4.32634527
 H   2.17815765  -0.24708645  -4.61500465
 C   4.21249409  -0.19218143  -3.92489743
 C   3.21340017   1.39708561  -5.51047560
 H   3.88745756   2.21334397  -5.21987407
 H   2.28183375   1.82262721  -5.88672889
 O   5.31017082   0.37066315  -3.99027874
 O   3.76989092   0.60455469  -6.55091027
 H   4.68681215   0.42192268  -6.31921456
 N   4.05488774  -1.45536784  -3.48473481
 H   3.13237953  -1.78054656  -3.22135132
 C   5.20467030  -2.27416954  -3.18251734
 H   5.92072833  -1.73687057  -2.55567773
 H   4.86638136  -3.14989611  -2.62879037
 C   5.99217229  -2.77739671  -4.39782971
 O   7.10682079  -3.25847569  -4.26548214
 N   5.35505539  -2.71747491  -5.59504923
 H   4.46571124  -2.26124762  -5.65569716
 C   6.05532969  -3.07954284  -6.79854803
 H   6.93434517  -3.64674308  -6.46901022
 C   6.62945832  -1.88372552  -7.54274206
 C   5.21677360  -3.94803797  -7.73255139
 H   4.27640916  -3.43664103  -7.95158215
 H   5.75040434  -4.04746817  -8.67973642
 O   7.02232499  -1.92613773  -8.67858171
 C   4.94511709  -5.32424442  -7.14517527
 H   5.90183383  -5.82430002  -6.95618730
 H   4.44741348  -5.23054437  -6.17990121
 C   4.10120867  -6.18505514  -8.07306584
 H   4.61861971  -6.29846722  -9.03296617
 H   3.15639404  -5.67079299  -8.28233939
 C   3.79896239  -7.55977557  -7.50849400
 H   3.31555931  -8.17554971  -8.27996576
 H   4.73946354  -8.05607507  -7.25083237
 N   3.00004454  -7.44583794  -6.28285543
 H   2.85069047  -8.36123201  -5.87744386
 H   2.07885386  -7.08399047  -6.50525737
 O   6.71354908  -0.76907209  -6.78087949
 H   7.16778491  -0.10362919  -7.31413505
 H   2.51182045   2.29096978   1.90763928
