21
conf-472
 N  -8.14766337   4.14309734   2.64847851
 H  -7.50135786   4.74391955   2.14397123
 H  -8.25285396   4.57982107   3.55707244
 C  -7.50728959   2.84361720   2.80724031
 H  -8.05273394   2.27061082   3.56332888
 C  -6.03624762   2.96978336   3.21561433
 C  -7.57930482   2.05268029   1.49249570
 H  -7.23125944   2.68959750   0.67819316
 H  -6.92050589   1.18242503   1.52918760
 O  -5.37814292   3.96080469   2.95714747
 C  -8.98612843   1.53988703   1.20803191
 N  -9.31222043   1.46364018  -0.11048931
 H  -10.22645649   1.11712118  -0.34445865
 H  -8.68244749   1.74930461  -0.83634852
 O  -9.74599670   1.18050312   2.08889052
 N  -5.51312527   1.87759448   3.86571073
 H  -6.07090367   1.04199188   3.77622743
 C  -4.07981325   1.63025675   3.73931131
 H  -3.62166626   2.60400620   3.58502617
 C  -3.85576731   0.76495648   2.49120343
 C  -3.48562060   1.00072635   5.01720342
 H  -3.81174560   1.66034272   5.82776496
 O  -4.70558256  -0.02660846   2.07500836
 C  -1.95429335   0.97269473   5.03494608
 H  -1.58878447   0.33908193   4.22316980
 H  -1.65448846   0.46621878   5.95898528
 C  -4.03156697  -0.40305372   5.26469376
 H  -3.74475183  -1.06292686   4.44328093
 H  -3.63404391  -0.80961251   6.19583594
 H  -5.12177551  -0.40200415   5.32878983
 C  -1.27930837   2.33458694   4.99424885
 H  -0.19273300   2.22137102   4.99405943
 H  -1.54614385   2.90230993   4.09501999
 H  -1.55684449   2.94004850   5.86184954
 N  -2.64043447   0.90298993   1.91785848
 H  -1.91621366   1.47426151   2.31889924
 C  -2.18929369   0.03942330   0.85561431
 H  -2.50801490  -0.98526766   1.07438797
 C  -0.65851830   0.13047552   0.89366897
 C  -2.76936768   0.45436620  -0.49314645
 H  -2.44877986  -0.23129086  -1.27921200
 H  -3.85725906   0.43559397  -0.42616948
 H  -2.44966521   1.46632019  -0.75355755
 O  -0.08088235   0.96476725   1.56894512
 N  -0.01035403  -0.78220701   0.12790386
 H  -0.53308880  -1.39376460  -0.47681865
 C   1.42872781  -0.74604066  -0.08117955
 H   1.77110314   0.26856722   0.09902107
 C   1.70688402  -1.20386524  -1.49706064
 C   2.19849437  -1.70428202   0.85748179
 H   3.25205100  -1.67507348   0.57542165
 O   1.25681210  -2.28964473  -1.89440597
 C   2.01653084  -1.39538624   2.32400808
 H   2.38942283  -0.39563985   2.55691111
 H   2.56170378  -2.12085456   2.92792367
 H   0.96511921  -1.43731073   2.60128373
 O   1.74994396  -3.09820566   0.59202634
 H   0.88047919  -3.19802324   1.03746862
 N   2.48231221  -0.42988880  -2.28202409
 H   2.99902661   0.32520825  -1.84842180
 C   3.17460784  -1.05539969  -3.40149366
 H   2.43336795  -1.59159242  -3.99456466
 C   4.23923852  -2.03535850  -2.90273494
 C   3.83959272   0.04373085  -4.22603041
 H   3.06980922   0.67411806  -4.66899496
 H   4.44677806  -0.40779231  -5.02113528
 O   4.90970291  -1.80789654  -1.90387526
 O   4.62264011   0.88797507  -3.40167612
 H   5.36007513   0.36284940  -3.07262696
 N   4.39190866  -3.16124344  -3.66408470
 H   4.02070199  -3.10237061  -4.59733450
 C   5.62929764  -3.89518175  -3.54687300
 H   5.91051034  -3.90514472  -2.49306973
 H   5.47434754  -4.92775500  -3.86247983
 C   6.74441159  -3.26392052  -4.38871702
 O   6.56593828  -2.28009325  -5.09230133
 N   7.94649327  -3.88247465  -4.27475761
 H   8.02042317  -4.73550764  -3.74547543
 C   9.08948320  -3.45594767  -5.04996020
 H   8.72722186  -2.78470454  -5.82975005
 C   9.76545336  -4.62708841  -5.73548513
 C   10.13522567  -2.70499987  -4.21372677
 H   10.49095865  -3.34427808  -3.40397918
 H   10.98953508  -2.50527303  -4.86647681
 O   10.36011671  -4.55953662  -6.77805801
 C   9.60897925  -1.39261614  -3.65294309
 H   9.22515012  -0.78099179  -4.47745192
 H   8.76471581  -1.58047652  -2.99052677
 C   10.67644557  -0.61741842  -2.89967272
 H   11.52837640  -0.41948419  -3.55573901
 H   11.05278794  -1.22495636  -2.06999234
 C   10.16783839   0.69827280  -2.34908254
 H   9.82773326   1.32470735  -3.17971510
 H   9.29473300   0.50692698  -1.70808160
 N   11.24713613   1.40356440  -1.65977556
 H   11.51445698   0.89159734  -0.82737033
 H   10.92884713   2.31032704  -1.34155271
 O   9.67842054  -5.76687952  -5.00776418
 H   10.15022785  -6.44973495  -5.50137238
 H   1.54878944  -3.09337557  -0.39343008
