21
conf-731
 N  -7.67426845  -1.42571213   4.00663749
 H  -8.19640166  -0.58111814   4.21333456
 H  -7.24654487  -1.69802160   4.88299881
 C  -6.63101960  -1.06796004   3.04805674
 H  -5.85095548  -1.83685869   3.07541659
 C  -5.98846556   0.28434921   3.39623466
 C  -7.18566164  -1.00634107   1.61874783
 H  -8.08378411  -0.38388198   1.63631394
 H  -6.47078169  -0.54154162   0.93922503
 O  -6.54867068   1.11331784   4.10001890
 C  -7.52155089  -2.36539908   1.00461057
 N  -8.37693395  -3.12370900   1.73510434
 H  -8.53447894  -4.06248103   1.41264532
 H  -8.53252510  -2.87653856   2.70093895
 O  -7.08548514  -2.70307941  -0.08291628
 N  -4.78174707   0.50913226   2.82303321
 H  -4.35724669  -0.17274778   2.21538768
 C  -4.06353958   1.75098921   3.02717934
 H  -4.78632309   2.56453653   2.96680642
 C  -3.06952142   1.87571164   1.88272385
 C  -3.39289899   1.83930171   4.41902350
 H  -4.22549773   1.77955453   5.12396464
 O  -2.48306964   0.89483914   1.42375039
 C  -2.68283980   3.17977984   4.63654922
 H  -1.90695203   3.30915159   3.87514589
 H  -2.15637223   3.11470937   5.59457180
 C  -2.43763004   0.68166708   4.69942713
 H  -1.56871028   0.73680630   4.04097866
 H  -2.08309903   0.73436444   5.72970874
 H  -2.91817472  -0.28517082   4.55401897
 C  -3.61327211   4.38418158   4.68307256
 H  -3.05820225   5.29608732   4.91165858
 H  -4.13316198   4.55003141   3.73461925
 H  -4.37369917   4.25444385   5.45860867
 N  -2.88118826   3.11826307   1.39749727
 H  -3.18349653   3.89728595   1.96119339
 C  -1.91036502   3.39015163   0.34663420
 H  -2.19588315   2.80220015  -0.53288688
 C  -0.53246519   2.93896177   0.81378605
 C  -1.89744408   4.87518195   0.02128720
 H  -1.15255650   5.09080775  -0.74890523
 H  -2.87588960   5.20055758  -0.33879825
 H  -1.63816274   5.44800491   0.91283124
 O   0.00667274   3.43693379   1.80229436
 N   0.01847801   1.96907844   0.05691431
 H  -0.49660322   1.62750474  -0.73835393
 C   1.20960718   1.20873151   0.36798273
 H   1.98049780   1.90346515   0.68861896
 C   1.55164534   0.49750460  -0.93281689
 C   1.00038686   0.12606754   1.45862367
 H   1.78139523  -0.62611642   1.35351555
 O   0.67949659  -0.15399245  -1.51689302
 C   1.01521596   0.64491725   2.87908462
 H   1.97846264   1.11348024   3.08974880
 H   0.87466954  -0.17360502   3.58660812
 H   0.23582038   1.38745416   3.03610223
 O  -0.27280537  -0.58927258   1.20381651
 H  -1.04446356   0.04398016   1.35114073
 N   2.81253184   0.61251719  -1.37670138
 H   3.54386272   0.98936190  -0.78868992
 C   3.30489425  -0.16011249  -2.49996655
 H   2.90555724  -1.17817042  -2.45131065
 C   4.84162152  -0.19372863  -2.33652178
 C   2.86509957   0.43602458  -3.83198456
 H   3.40538667   1.36902672  -4.03311234
 H   1.79854506   0.65707705  -3.76926293
 O   5.40199494   0.35279842  -1.40370547
 O   3.11961405  -0.54669592  -4.83732072
 H   3.01427527  -0.13352152  -5.69878684
 N   5.50908994  -0.87586846  -3.28143771
 H   5.04664971  -1.22302677  -4.11010654
 C   6.94091702  -0.96837344  -3.21379533
 H   7.39742147   0.02564658  -3.18908723
 H   7.25491293  -1.46262435  -2.28976383
 C   7.42656616  -1.74084994  -4.43447531
 O   6.66314040  -2.10819161  -5.31123481
 N   8.76481396  -1.94603410  -4.48611991
 H   9.32977032  -1.80041684  -3.66241860
 C   9.34190508  -2.79262225  -5.50777424
 H   8.53951458  -3.39556714  -5.94405025
 C   10.35188716  -3.70825085  -4.85054094
 C   10.01725326  -2.00023083  -6.63431216
 H   10.82219823  -1.38827620  -6.22132363
 H   10.47682466  -2.71798328  -7.31594530
 O   10.79887901  -3.56596768  -3.74098226
 C   9.04111824  -1.12661893  -7.40662923
 H   8.20967122  -1.74532525  -7.75873869
 H   8.60588505  -0.37564885  -6.75084356
 C   9.70062533  -0.43745590  -8.58884220
 H   10.13537517  -1.18722597  -9.25844545
 H   10.52889876   0.18289214  -8.23064367
 C   8.73688728   0.43455097  -9.38034771
 H   7.91426539  -0.18072833  -9.75287082
 H   8.29676997   1.18171935  -8.71553781
 N   9.31823447   1.13720999  -10.51741157
 H   9.72459425   0.47184657  -11.16542253
 H   10.08138389   1.72770343  -10.20633611
 O   10.72323576  -4.70883841  -5.67286661
 H   11.37670445  -5.22616476  -5.18536099
 H  -0.29447677  -0.79659491   0.23032127
