21
conf-234
 N  -6.64373908  -2.84218981   3.40550169
 H  -7.19552241  -3.57655607   2.98258371
 H  -7.27771007  -2.13786035   3.76936450
 C  -5.78254020  -2.21860135   2.42072342
 H  -4.86892321  -2.81230181   2.30072530
 C  -5.41452520  -0.82458909   2.93744643
 C  -6.42264737  -2.11110297   1.02576313
 H  -6.80232644  -3.10251642   0.75290428
 H  -7.28152084  -1.43389059   1.05088900
 O  -6.16335853  -0.19298400   3.66351902
 C  -5.43432649  -1.69431151  -0.04938750
 N  -5.96563377  -1.11809991  -1.15502124
 H  -5.32655882  -0.83191199  -1.87584957
 H  -6.95009383  -0.95024685  -1.25117760
 O  -4.23201687  -1.89579165   0.06162836
 N  -4.23209583  -0.33651977   2.49613930
 H  -3.73800887  -0.81036841   1.74591787
 C  -3.84896394   1.02792022   2.78117267
 H  -4.75352971   1.64364832   2.79278315
 C  -2.93890373   1.47653993   1.65311472
 C  -3.18424179   1.16175808   4.17868665
 H  -3.87140439   0.61255666   4.83314366
 O  -2.38425311   0.68054439   0.90980531
 C  -3.13973280   2.60816899   4.68633976
 H  -4.02004844   3.14841981   4.31981468
 H  -2.26340602   3.11602560   4.27187808
 C  -1.80418054   0.50626938   4.22477957
 H  -1.13063276   0.96676319   3.50489218
 H  -1.35329153   0.61970823   5.21145694
 H  -1.87392921  -0.55746951   3.99878578
 C  -3.11648105   2.69350943   6.20852933
 H  -3.00049759   3.72417373   6.54708581
 H  -4.04794190   2.30375290   6.62657547
 H  -2.30010544   2.10718842   6.63359080
 N  -2.74000534   2.81163810   1.55034068
 H  -2.94603827   3.35472570   2.36932549
 C  -1.60151639   3.28556429   0.76372074
 H  -1.75844721   2.95557850  -0.26414138
 C  -0.32396079   2.61183516   1.31106747
 C  -1.47768701   4.79506671   0.84906872
 H  -0.65832755   5.13966010   0.21418564
 H  -2.40329346   5.27905515   0.53680404
 H  -1.24647730   5.07609261   1.87785283
 O   0.07367543   2.80716099   2.49379652
 N   0.28249818   1.77858527   0.41904437
 H  -0.16053334   1.64222213  -0.47349876
 C   1.33173970   0.84712834   0.78681105
 H   1.27062643   0.72472275   1.87348905
 C   2.67298447   1.48085112   0.41323997
 C   1.09328340  -0.50090418   0.12103786
 H   1.10878969  -0.37263544  -0.96140978
 O   3.35654750   1.08812012  -0.53393766
 C   2.04810525  -1.59143100   0.55565140
 H   3.06958477  -1.34273903   0.27883835
 H   1.77881309  -2.53345383   0.07630875
 H   1.99859738  -1.71912943   1.63686038
 O  -0.28328951  -0.97836636   0.45053355
 H  -0.26703990  -1.47693625   1.29766847
 N   3.05515089   2.52184411   1.17981348
 H   2.40299428   2.88216814   1.86461702
 C   4.22911303   3.30145229   0.83234126
 H   4.30839547   3.30438051  -0.26183846
 C   5.51831596   2.68067613   1.38450929
 C   4.08879777   4.73926882   1.31513120
 H   4.05121486   4.75821338   2.41179996
 H   3.14747739   5.14245315   0.93143652
 O   6.33814349   3.35302435   2.02057153
 O   5.13521636   5.54668761   0.81977702
 H   5.92736824   5.21560891   1.26102680
 N   5.71374989   1.37612572   1.14032148
 H   5.14341231   0.92058072   0.43719354
 C   6.94243518   0.74632400   1.57373821
 H   7.18840433   1.17174361   2.54910337
 H   6.78895167  -0.32806872   1.67116361
 C   8.08766439   0.96066106   0.58660841
 O   8.52307028   0.06694088  -0.12299283
 N   8.57549062   2.22322505   0.54819383
 H   8.16329329   2.94980579   1.12111589
 C   9.63842081   2.55834375  -0.37531084
 H   10.31007768   1.69875150  -0.45228992
 C   10.38951065   3.75266072   0.15947951
 C   9.07316793   2.85949747  -1.77330543
 H   8.45399634   2.00439620  -2.04518092
 H   8.41509394   3.72824850  -1.70419105
 O   9.90508661   4.63997190   0.81483365
 C   10.13783812   3.07695279  -2.83668906
 H   10.74409743   3.95324940  -2.60991889
 H   10.81688198   2.21816850  -2.83571948
 C   9.52048996   3.22911515  -4.21906003
 H   8.82634967   4.07712485  -4.21283633
 H   8.92759742   2.33643486  -4.45045492
 C   10.54825625   3.44121697  -5.31387626
 H   11.27002089   2.61907848  -5.29260810
 H   10.05396696   3.40555122  -6.29485928
 N   11.28395457   4.69037316  -5.08731945
 H   10.65999689   5.48214610  -5.20022538
 H   12.00675352   4.80161322  -5.78719763
 O   11.68443823   3.74473398  -0.21728096
 H   12.06638200   4.56243601   0.12609998
 H  -1.00604120  -0.27299527   0.50089473
