21
conf-727
 N  -7.06894751   5.21022603   3.11013802
 H  -6.33800278   5.91295105   3.08119987
 H  -7.10551456   4.91445550   4.07904931
 C  -6.65335708   4.09335458   2.27909507
 H  -7.36800312   3.27124494   2.42054531
 C  -5.25160588   3.57418652   2.63736412
 C  -6.67644547   4.49804870   0.80412182
 H  -5.95727405   5.30055445   0.63878160
 H  -6.39116066   3.65225044   0.17459724
 O  -4.44281371   4.24252199   3.26602953
 C  -8.02508577   5.04465187   0.35870876
 N  -9.07917936   4.19512545   0.52247062
 H  -9.95540802   4.48756850   0.12338691
 H  -8.92724042   3.21858680   0.69889195
 O  -8.15524564   6.17514903  -0.07826959
 N  -4.95245536   2.34304002   2.15359207
 H  -5.65549746   1.78073366   1.70124968
 C  -3.68674693   1.69581362   2.46042144
 H  -2.90838852   2.46151933   2.40551623
 C  -3.45882150   0.64514832   1.38288944
 C  -3.64860678   1.11064134   3.89252675
 H  -3.76564479   1.98588785   4.53913261
 O  -4.30568073  -0.19810623   1.11480568
 C  -2.30430603   0.45183544   4.21924266
 H  -2.14088071  -0.38939931   3.53597947
 H  -2.39110288   0.02766731   5.22354757
 C  -4.78516429   0.13503728   4.18728769
 H  -4.67774222  -0.76798794   3.58524453
 H  -4.76523277  -0.14630287   5.24150116
 H  -5.75867666   0.57547772   3.96785716
 C  -1.10517406   1.39792706   4.18629713
 H  -0.25384142   0.95377950   4.70737076
 H  -0.78374195   1.60571134   3.16393836
 H  -1.33479845   2.34548094   4.67986816
 N  -2.26313826   0.73447048   0.74432058
 H  -1.63432610   1.46639797   1.02781900
 C  -1.70358067  -0.38177409   0.01828063
 H  -2.44732087  -1.17660900   0.05305591
 C  -0.45370386  -0.87213160   0.79761442
 C  -1.37911776  -0.02278269  -1.42305716
 H  -0.99788841  -0.89431983  -1.96186536
 H  -2.28019229   0.33092425  -1.92593135
 H  -0.62045534   0.76148302  -1.45645243
 O  -0.10049581  -0.32723247   1.85310382
 N   0.18560416  -1.94734358   0.26319094
 H  -0.07963590  -2.25716414  -0.65737664
 C   1.58040867  -2.24284156   0.57035278
 H   2.08085686  -1.31593602   0.87495171
 C   2.16349502  -2.75977885  -0.74373328
 C   1.69804465  -3.22989469   1.74861207
 H   1.22620481  -4.17228337   1.46908221
 O   1.43564058  -3.15809941  -1.63792866
 C   3.11290513  -3.44941035   2.24208012
 H   3.71482027  -3.98098485   1.50612904
 H   3.09687734  -4.03725398   3.16014393
 H   3.59370836  -2.48835334   2.45957586
 O   0.90832741  -2.68649534   2.88173052
 H   1.02942638  -1.69303432   2.86032947
 N   3.50996786  -2.74845201  -0.83968071
 H   4.09472975  -2.51858015  -0.05459784
 C   4.20097257  -3.41524674  -1.92044362
 H   3.70714728  -4.36896141  -2.13391986
 C   5.62452453  -3.66522613  -1.40207402
 C   4.16744515  -2.59212043  -3.20319822
 H   4.79289408  -1.69700419  -3.10175048
 H   3.13257229  -2.28738387  -3.36530586
 O   5.97059277  -3.30162952  -0.28351118
 O   4.62909110  -3.42364928  -4.26993739
 H   4.71460234  -2.88253824  -5.05964666
 N   6.43959279  -4.32329676  -2.24464584
 H   6.15420769  -4.38553570  -3.21455131
 C   7.79848946  -4.65441239  -1.87148739
 H   7.77500917  -4.94734941  -0.82002867
 H   8.14790106  -5.48915311  -2.47699622
 C   8.76191961  -3.48854378  -2.08432917
 O   9.52037234  -3.42957955  -3.03971247
 N   8.70551735  -2.52226709  -1.13528909
 H   7.96294126  -2.53395944  -0.44657842
 C   9.57746113  -1.37005473  -1.24564543
 H   10.48388959  -1.69692958  -1.76011407
 C   9.98717802  -0.84840006   0.11243479
 C   8.93536487  -0.25388349  -2.07988182
 H   8.62965090  -0.70957462  -3.02210947
 H   8.03277775   0.10169963  -1.58124132
 O   11.07570412  -0.40839450   0.38112314
 C   9.88227475   0.90462250  -2.35962214
 H   10.20068636   1.37827542  -1.42821427
 H   10.78888292   0.50706209  -2.82929883
 C   9.25853885   1.94156952  -3.28011339
 H   8.36322083   2.36071744  -2.81351578
 H   8.93325616   1.46304263  -4.21010724
 C   10.20820032   3.07092511  -3.62063343
 H   10.50800755   3.57472048  -2.69638757
 H   11.11987321   2.65137657  -4.07214088
 N   9.53704267   4.04984569  -4.47420850
 H   9.33921183   3.63816031  -5.37855033
 H   10.14664635   4.83816105  -4.65229245
 O   8.96983609  -0.88151070   0.99856277
 H   9.30567537  -0.51607258   1.82598366
 H  -0.05027810  -2.78305704   2.67274313
