21
conf-231
 N  -8.26050263   0.48320739   4.70490192
 H  -7.83422642   0.93421987   5.50821162
 H  -8.16790738  -0.51212001   4.87308258
 C  -7.49629886   0.85886553   3.52594342
 H  -7.82395758   0.23709315   2.68512053
 C  -5.98830690   0.66286822   3.72302603
 C  -7.76761386   2.32716171   3.18639340
 H  -7.44764279   2.95158392   4.02091482
 H  -7.20255187   2.62637258   2.30072816
 O  -5.45330809   0.78357928   4.81976105
 C  -9.24595918   2.62362399   2.97534523
 N  -9.84951641   1.89500780   1.99321059
 H  -10.78954289   2.16146156   1.75230537
 H  -9.30148424   1.38764103   1.32224557
 O  -9.85105917   3.42950053   3.66055707
 N  -5.27657553   0.39035602   2.60461090
 H  -5.68467446   0.40915340   1.68226585
 C  -3.82787263   0.31981219   2.64293315
 H  -3.46807822   1.11245432   3.30433621
 C  -3.36293230   0.59968021   1.21285090
 C  -3.33771604  -1.03611967   3.21297381
 H  -4.07188476  -1.29239305   3.98422371
 O  -4.10452939   0.46815845   0.25359816
 C  -1.98747183  -0.93275025   3.92183103
 H  -1.21394085  -0.59165931   3.22784406
 H  -1.70059940  -1.95140031   4.20627469
 C  -3.32948729  -2.14317791   2.15904291
 H  -2.53857535  -1.97127913   1.42553550
 H  -3.15262149  -3.11074666   2.63274808
 H  -4.28391650  -2.18495612   1.62976745
 C  -2.01040179  -0.07351762   5.17888457
 H  -1.05404266  -0.12017144   5.70151714
 H  -2.21548207   0.97768242   4.95473033
 H  -2.78747781  -0.41689424   5.86857331
 N  -2.06221767   0.93809288   1.08409774
 H  -1.46236505   1.10744130   1.87347880
 C  -1.45612158   1.17102032  -0.20847781
 H  -1.74815595   0.35782881  -0.87883587
 C   0.04931787   1.14046600   0.03774985
 C  -1.90627209   2.49485754  -0.82618006
 H  -1.43688985   2.64591869  -1.79954053
 H  -2.98805546   2.47878144  -0.95147712
 H  -1.64208040   3.32991545  -0.17296645
 O   0.50527045   1.30394013   1.17097609
 N   0.83107486   0.97958000  -1.03383664
 H   0.43591389   0.82785006  -1.95061955
 C   2.26961791   1.23191775  -1.04247608
 H   2.47721477   2.13439899  -0.46118673
 C   2.61151599   1.40491022  -2.52698240
 C   3.09219078   0.07629284  -0.42277347
 H   2.88315848  -0.81396780  -1.01023891
 O   1.86408585   0.98198944  -3.40278960
 C   4.57867934   0.33832093  -0.30505160
 H   5.06484067   0.35731318  -1.27925448
 H   5.04590563  -0.45753640   0.28167849
 H   4.76751450   1.28660858   0.20636681
 O   2.60915240  -0.20512745   0.94592998
 H   1.80453192   0.37753315   1.15518002
 N   3.78921285   1.99677743  -2.81917604
 H   4.39281430   2.29843975  -2.07268915
 C   4.32118361   1.97485433  -4.17235744
 H   3.47915466   2.14404657  -4.85024032
 C   4.94308317   0.60479762  -4.49359035
 C   5.35097249   3.07972243  -4.35151811
 H   6.17236535   2.94144526  -3.63618651
 H   4.87202355   4.03849747  -4.15059799
 O   6.15961851   0.44367148  -4.56811515
 O   5.83109236   3.11372728  -5.68183485
 H   6.41203923   2.35043894  -5.76597220
 N   4.07011330  -0.41478647  -4.65274194
 H   3.07658806  -0.24532829  -4.58204654
 C   4.52954671  -1.68452375  -5.15008697
 H   3.92850883  -2.02615021  -5.99404841
 H   5.55740852  -1.54621144  -5.49338512
 C   4.54232378  -2.84378580  -4.15676643
 O   4.55386693  -3.99788165  -4.55795840
 N   4.59808214  -2.51031707  -2.84433718
 H   4.62385210  -1.54165792  -2.58752807
 C   4.73104227  -3.54390435  -1.82831734
 H   4.88658287  -4.47184040  -2.37998483
 C   3.39625573  -3.69441410  -1.09930042
 C   5.90700548  -3.29840324  -0.89489092
 H   5.81990010  -2.30679221  -0.44581262
 H   5.85206782  -4.01455294  -0.07349633
 O   3.08397224  -3.12202938  -0.08176012
 C   7.24606897  -3.43877840  -1.59783116
 H   7.31388016  -4.43389622  -2.04440323
 H   7.31119564  -2.72392142  -2.42151388
 C   8.41527255  -3.22573914  -0.65053428
 H   8.34302833  -3.93460534   0.18181512
 H   8.34887433  -2.22111425  -0.21690714
 C   9.76602214  -3.38684751  -1.32082016
 H   9.82194887  -2.71005389  -2.17890591
 H   10.56105104  -3.08481262  -0.62459932
 N   9.93022901  -4.75727955  -1.81941099
 H   9.98224964  -5.40324264  -1.03907229
 H   10.80856161  -4.84547113  -2.31478590
 O   2.56977267  -4.52037386  -1.76742035
 H   1.73756475  -4.54996454  -1.27926494
 H   2.41881919  -1.16570931   1.05936796
