21
conf-883
 N  -6.82595120   0.75927851   6.32411517
 H  -6.19190900   0.23198287   6.92555171
 H  -7.80600458   0.53652944   6.54792145
 H  -6.64567280   1.75893197   6.44650253
 C  -6.60112289   0.45331072   4.90554648
 H  -6.41229960  -0.61821602   4.78430867
 C  -5.38507081   1.25348278   4.43692551
 C  -7.81448359   0.84502833   4.06111563
 H  -7.98629355   1.91757661   4.16839398
 H  -7.63098544   0.65148391   3.00550503
 O  -5.07993230   2.31057876   4.97253020
 C  -9.09680209   0.14533641   4.49746265
 N  -9.93762393  -0.20165725   3.49694426
 H  -10.80660296  -0.64492431   3.73999368
 H  -9.72779745  -0.01971343   2.53351189
 O  -9.36502032  -0.05055591   5.67374149
 N  -4.72995483   0.75641841   3.36667226
 H  -4.97227010  -0.13647840   2.96812137
 C  -3.55610008   1.41000629   2.82034178
 H  -3.77730113   2.47627599   2.75650359
 C  -3.35534462   0.82949797   1.42543599
 C  -2.30167990   1.26048346   3.72572950
 H  -2.54109023   1.84898682   4.61366314
 O  -3.52067915  -0.36384286   1.20125003
 C  -1.03725343   1.85023079   3.08700019
 H  -0.79596054   1.31179714   2.16070387
 H  -0.20781102   1.64604654   3.77128548
 C  -2.03094859  -0.17727179   4.16357183
 H  -1.77083350  -0.79743563   3.30674503
 H  -1.19138309  -0.19849978   4.86065425
 H  -2.89186970  -0.62501794   4.66076665
 C  -1.08128939   3.35045610   2.83122698
 H  -0.15812257   3.68081725   2.34995105
 H  -1.90268395   3.64381890   2.17158203
 H  -1.19981659   3.90089525   3.76904277
 N  -2.99739527   1.71708766   0.45434587
 H  -2.63956792   2.60924705   0.75711026
 C  -2.44819614   1.24367213  -0.81300335
 H  -3.00292375   0.34272873  -1.07749360
 C  -0.96083814   0.88866894  -0.61674757
 C  -2.57879014   2.30605108  -1.89141978
 H  -2.21118294   1.91307262  -2.84208901
 H  -3.62081179   2.60583585  -2.00470947
 H  -1.97713806   3.18077821  -1.63902768
 O  -0.11859156   1.74018453  -0.23616405
 N  -0.65289771  -0.40874105  -0.87377940
 H  -1.37448513  -1.06908492  -1.11708036
 C   0.65441026  -0.94323899  -0.54445060
 H   1.13474901  -0.23389255   0.13693833
 C   1.48520097  -1.02962086  -1.81611172
 C   0.50037237  -2.27840286   0.15789162
 H   1.49354583  -2.70422567   0.32495381
 O   1.80726469  -2.10542256  -2.32707149
 C  -0.23033551  -2.10157997   1.47084766
 H   0.32300376  -1.42335052   2.12844295
 H  -0.33698522  -3.06654834   1.96762764
 H  -1.22551022  -1.69053851   1.29368708
 O  -0.27475607  -3.15248067  -0.65089680
 H   0.27543283  -3.35049138  -1.41750538
 N   1.81253183   0.14790249  -2.37592439
 H   1.54269448   1.01660364  -1.93062564
 C   2.58719107   0.18566649  -3.60278834
 H   2.25374536  -0.65287301  -4.21950657
 C   4.08789667   0.02704823  -3.29728894
 C   2.33230687   1.50304967  -4.31072881
 H   1.27079539   1.57306663  -4.55699921
 H   2.91512285   1.53943531  -5.23835693
 O   4.86899744   0.97290492  -3.30994081
 O   2.63703666   2.59359374  -3.46797549
 H   3.59079149   2.52886988  -3.32326121
 N   4.49891900  -1.21530436  -3.00188288
 H   3.86463279  -1.99634873  -2.89197775
 C   5.87720140  -1.39907327  -2.64676625
 H   6.52796870  -0.91639969  -3.38098591
 H   6.11139575  -0.92122354  -1.68745748
 C   6.18053449  -2.88831652  -2.56790691
 O   5.30543736  -3.73292876  -2.61346930
 N   7.48951495  -3.19684808  -2.43982555
 H   8.20881870  -2.53337506  -2.17202407
 C   7.90543107  -4.54993576  -2.19582882
 H   7.22466217  -5.02596941  -1.47506634
 C   9.32832642  -4.43490530  -1.58003219
 C   7.91911998  -5.39803257  -3.47042485
 H   6.97595510  -5.21276146  -3.98682265
 H   8.72148851  -5.04901730  -4.12830677
 O   9.88524275  -5.49053231  -1.24766730
 C   8.06618066  -6.88490521  -3.17548948
 H   8.94187040  -7.04796233  -2.54519195
 H   7.19786460  -7.20370517  -2.58724571
 C   8.14112823  -7.71446367  -4.44491112
 H   9.02816178  -7.42665746  -5.01800613
 H   7.27288740  -7.48963112  -5.07250783
 C   8.16978232  -9.20956608  -4.18981768
 H   7.31162678  -9.47769700  -3.56719125
 H   8.06611763  -9.75575973  -5.12881412
 N   9.41417991  -9.64473275  -3.50545221
 H   9.39504853  -10.63523940  -3.26198209
 H   9.55272966  -9.11899059  -2.64225832
 H   10.23492677  -9.48146508  -4.08859772
 O   9.76939060  -3.27361184  -1.46200280
