21
conf-669
 N  -8.19955850   0.66537652   5.15678617
 H  -7.82661152   1.18742960   5.95127975
 H  -8.87053902  -0.02270714   5.49635870
 H  -8.69442492   1.33589702   4.56171483
 C  -7.10744344   0.01445657   4.40764042
 H  -6.57735712  -0.67472664   5.07248656
 C  -6.12328973   1.09468424   3.94589084
 C  -7.63484629  -0.78889261   3.20920099
 H  -6.81799209  -1.36733522   2.77139528
 H  -8.40793578  -1.47570990   3.55946565
 O  -6.41009301   2.28478752   3.98273621
 C  -8.16207215   0.13488329   2.13254830
 N  -9.47996025   0.48656505   2.26570071
 H  -9.87572826   1.01720120   1.50634186
 H  -10.09869768  -0.10823572   2.78951278
 O  -7.44020710   0.60346740   1.26815615
 N  -4.92212035   0.63447342   3.51465217
 H  -4.78168839  -0.35509929   3.37525360
 C  -3.93838310   1.49590134   2.87511007
 H  -4.41932142   2.44514239   2.63707206
 C  -3.49649849   0.79444579   1.59994768
 C  -2.71452859   1.77243349   3.78041416
 H  -2.31971101   0.78726196   4.05063113
 O  -3.22342605  -0.39650718   1.58857906
 C  -3.10315661   2.47921497   5.08514428
 H  -2.22022658   2.48002969   5.73189984
 H  -3.85577696   1.88217241   5.60803489
 C  -1.61191008   2.54289604   3.04682947
 H  -1.99648424   3.47602302   2.62219157
 H  -0.80919517   2.79863003   3.74349596
 H  -1.17504579   1.95922029   2.23352488
 C  -3.60130347   3.90992386   4.91594326
 H  -3.86228722   4.33902734   5.88523158
 H  -2.83484962   4.54538742   4.46712528
 H  -4.49200295   3.94989248   4.28419358
 N  -3.42346182   1.57557399   0.48709094
 H  -3.37985694   2.57331741   0.61768170
 C  -2.77656474   1.06890613  -0.71497040
 H  -3.10986836   0.03723832  -0.83739719
 C  -1.26143362   1.11254843  -0.52815765
 C  -3.17068906   1.92758211  -1.90352143
 H  -2.71058938   1.54924989  -2.81969780
 H  -4.25520861   1.92379158  -2.02599751
 H  -2.83234814   2.95284736  -1.74664478
 O  -0.69574091   2.16597334  -0.22555543
 N  -0.60486980  -0.05396618  -0.71408165
 H  -1.12161659  -0.91279518  -0.81826614
 C   0.82909926  -0.12164918  -0.53294849
 H   1.08167317   0.56529388   0.28136932
 C   1.51721428   0.31236435  -1.82201218
 C   1.25848774  -1.55315560  -0.16603381
 H   1.08193305  -2.17811043  -1.04588910
 O   1.40382634  -0.31340003  -2.86268771
 C   2.71230584  -1.62979170   0.25328162
 H   3.36253672  -1.30212472  -0.55417499
 H   2.96500768  -2.65645338   0.51607497
 H   2.87327816  -0.99257993   1.12668524
 O   0.43238791  -2.07855197   0.86111990
 H   0.63667915  -1.59994599   1.66933877
 N   2.26900775   1.44398549  -1.72757244
 H   2.50408588   1.75814527  -0.80251694
 C   3.23420576   1.72085686  -2.76491634
 H   2.76185505   1.48905285  -3.71904124
 C   4.50043786   0.82387874  -2.58275775
 C   3.62117020   3.19697254  -2.72341933
 H   4.24120242   3.36676353  -1.83032683
 H   2.70906262   3.78374516  -2.63603184
 O   4.79696555   0.29304358  -1.50193650
 O   4.26933048   3.61901447  -3.90794686
 H   5.15842167   3.25594799  -3.88291177
 N   5.27233378   0.78375216  -3.70799990
 H   4.87415961   1.12281370  -4.56733454
 C   6.54271943   0.09339097  -3.72955586
 H   7.24630038   0.63112808  -4.36299768
 H   6.89790008   0.08587886  -2.69635721
 C   6.42456128  -1.32336533  -4.27870626
 O   6.76738031  -1.60110438  -5.41796783
 N   5.90797282  -2.23462070  -3.41476645
 H   5.31677896  -1.97939113  -2.62916458
 C   5.66826631  -3.58913749  -3.81964587
 H   5.42544524  -3.62776025  -4.88885190
 C   4.44941112  -4.07498298  -2.99054004
 C   6.81328318  -4.56012176  -3.52548233
 H   7.10342979  -4.46798100  -2.47463472
 H   6.41200362  -5.56810575  -3.66925801
 O   4.05077434  -3.24168474  -2.13558413
 C   8.02641900  -4.35932767  -4.41948140
 H   7.70525994  -4.39946016  -5.46738354
 H   8.43755705  -3.36529869  -4.26204377
 C   9.08715188  -5.42007243  -4.17632389
 H   8.62838920  -6.40990837  -4.26890552
 H   9.45838026  -5.33760098  -3.15026979
 C   10.25485922  -5.34562302  -5.14122869
 H   10.91553553  -6.20230047  -4.99795744
 H   9.87292297  -5.40407802  -6.16416289
 N   11.03851885  -4.09206945  -4.99271963
 H   11.81910767  -4.04708177  -5.64854757
 H   11.41647471  -4.00291904  -4.04969856
 H   10.45440592  -3.27435237  -5.16195476
 O   3.99215617  -5.18850785  -3.24399734
