21
conf-879
 N  -5.03554983  -3.73184241  -2.20193535
 H  -5.10501662  -4.43917041  -2.93548221
 H  -4.27352642  -3.99995181  -1.57105233
 H  -5.91262898  -3.66652262  -1.68457342
 C  -4.66144822  -2.41705879  -2.74735423
 H  -5.13626472  -2.26466802  -3.71917833
 C  -3.14878921  -2.38436601  -2.89234820
 C  -5.09761402  -1.29465919  -1.79900579
 H  -4.64945180  -1.47990469  -0.81904079
 H  -4.68285881  -0.35139433  -2.16283883
 O  -2.43626961  -3.05650269  -2.15029459
 C  -6.59620115  -1.21386753  -1.67732613
 C  -7.36847278  -0.77264191  -2.75121814
 H  -6.86747449  -0.46509691  -3.66281657
 C  -7.24391331  -1.63601134  -0.52050308
 H  -6.65745904  -2.00188276   0.31663672
 C  -8.75596531  -0.72218220  -2.65917916
 H  -9.33426612  -0.36443191  -3.50356644
 C  -8.63269036  -1.60357345  -0.42555988
 H  -9.11528297  -1.93982720   0.48465680
 C  -9.39338519  -1.14194061  -1.49524471
 H  -10.47451427  -1.11036032  -1.42277577
 N  -2.63484967  -1.56354987  -3.83573458
 H  -3.21885508  -0.81975744  -4.18820531
 C  -1.22270652  -1.22851362  -3.74223681
 H  -0.65767741  -2.16064060  -3.80206474
 C  -0.94319091  -0.58865710  -2.38555913
 C  -0.85687549  -0.33792297  -4.91328441
 H  -0.87454317  -0.95017121  -5.82336313
 H   0.14622443   0.07954658  -4.78203403
 O  -1.71511238   0.19115155  -1.84773605
 O  -1.83212785   0.70015812  -4.99217533
 H  -1.44512425   1.45973364  -5.43911448
 N   0.20841728  -1.00955422  -1.79938643
 H   0.76133122  -1.70921121  -2.25857862
 C   0.49887140  -0.70727521  -0.41435782
 H  -0.30844514  -0.04241527  -0.09077232
 C   1.83095664   0.04425928  -0.27605059
 C   0.47064332  -1.97945146   0.42146744
 H   0.73856699  -1.73849796   1.44947283
 H   1.22019828  -2.68302309   0.03410351
 O   2.65581974  -0.25888454   0.58483511
 O  -0.82716319  -2.54745468   0.45267319
 H  -1.07333925  -2.78576055  -0.45000414
 N   2.00642892   1.07933154  -1.13532463
 H   1.44535135   1.12297347  -1.98804904
 C   3.30318393   1.73672303  -1.25120749
 H   4.08425755   0.96860060  -1.20583233
 C   3.47651764   2.72706992  -0.08922062
 C   3.36269479   2.47431877  -2.58530161
 H   2.65555402   3.30657040  -2.54815321
 H   4.36211616   2.86434115  -2.77418550
 O   3.21515027   3.91665520  -0.20354775
 C   2.97611085   1.50735314  -3.70886258
 O   1.74950081   1.21757036  -3.73617121
 O   3.84251599   1.12647600  -4.49383088
 N   3.91331049   2.18820555   1.07293422
 H   3.96565487   1.18030595   1.17039998
 C   3.95576004   2.96934597   2.28339067
 H   4.00032059   4.02452388   2.00061380
 C   5.20571242   2.60592027   3.05613530
 C   2.72940545   2.74494500   3.18075077
 H   2.88855323   3.30740618   4.10210654
 H   2.68260430   1.68327429   3.44366565
 O   5.85361780   1.60557203   2.90274640
 C   1.43785898   3.19962006   2.51667346
 H   1.17532471   2.53141019   1.69460858
 H   1.59479329   4.18725966   2.07683747
 C   0.26121795   3.27969309   3.47131202
 H   0.49185890   3.95633160   4.30266356
 H  -0.59985762   3.69657158   2.94185997
 N  -0.08351710   1.93316403   3.97042754
 H   0.70785582   1.31139740   4.06035302
 N  -1.86868851   2.75122697   5.23966312
 H  -2.73495810   2.53459212   5.70541039
 H  -1.87303239   3.57849726   4.66699896
 N  -1.13652052   0.53796044   5.50030067
 H  -0.74834278  -0.25796691   5.01230502
 H  -1.99152232   0.34157742   5.99760985
 C  -1.04347057   1.74519711   4.88936248
 O   5.49699906   3.54017537   3.98534758
 H   6.28147901   3.21916811   4.44712109
