21
conf-448
 N  -6.34032430  -1.69308927  -4.46106183
 H  -6.28368195  -2.27621480  -5.29505094
 H  -6.24077873  -2.30884531  -3.64586135
 H  -7.24928017  -1.23837483  -4.41631266
 C  -5.22484483  -0.73204075  -4.39016648
 H  -4.99806167  -0.34140865  -5.38820811
 C  -3.99958708  -1.49210859  -3.88725431
 C  -5.56659006   0.44891320  -3.46256123
 H  -4.64950148   1.01759244  -3.28573063
 H  -6.27420841   1.10237142  -3.98198987
 O  -4.10319070  -2.57994358  -3.34548449
 C  -6.15472539   0.00970300  -2.15334855
 C  -7.53171245  -0.03528350  -1.95095020
 H  -8.19796282   0.30263506  -2.73642458
 C  -5.32003676  -0.41448131  -1.11979547
 H  -4.24552218  -0.35514724  -1.26982414
 C  -8.06308272  -0.51553823  -0.75605486
 H  -9.13860435  -0.54945023  -0.62498232
 C  -5.84115146  -0.89713810   0.07767005
 H  -5.16290686  -1.21935718   0.85390548
 C  -7.21981516  -0.95255152   0.26036572
 H  -7.63289050  -1.32836764   1.18961336
 N  -2.79792827  -0.87885178  -4.10122455
 H  -2.82064626   0.10259498  -4.31427798
 C  -1.63382470  -1.33007246  -3.36992734
 H  -1.82151359  -2.37072209  -3.10084881
 C  -1.49493836  -0.51441631  -2.06838334
 C  -0.38122186  -1.26970878  -4.22817706
 H  -0.03134880  -0.23390668  -4.32596059
 H  -0.62590587  -1.65395779  -5.22174190
 O  -2.23448334   0.42111045  -1.78850055
 O   0.61050476  -2.09593445  -3.60457237
 H   1.44839203  -1.94529822  -4.05113306
 N  -0.51753300  -0.94652833  -1.24652968
 H   0.17458121  -1.58797304  -1.61600098
 C  -0.31256567  -0.38116223   0.06443278
 H  -0.81166434   0.58710471   0.09014057
 C   1.18565565  -0.23433216   0.28086793
 C  -0.90794533  -1.27649649   1.14522702
 H  -0.76935989  -0.79554579   2.11657931
 H  -0.37818917  -2.23501000   1.14133757
 O   1.93649765  -1.18592309   0.06278888
 O  -2.30400072  -1.46284187   0.95936421
 H  -2.39440007  -2.06999696   0.22019861
 N   1.60076282   0.96104435   0.73299604
 H   0.98118071   1.77074084   0.64699030
 C   3.00552567   1.30999257   0.76990561
 H   3.44060393   1.17054482  -0.22843122
 C   3.74700506   0.42585241   1.77296773
 C   3.11475925   2.77352704   1.19403947
 H   2.70104045   2.85715377   2.20072371
 H   4.14685312   3.12414946   1.18936777
 O   3.31390739   0.19223358   2.89042523
 C   2.29166253   3.65273900   0.22372479
 O   2.92331360   4.47652227  -0.44957714
 O   1.05124216   3.47572804   0.23635784
 N   4.94585238  -0.03879820   1.33699266
 H   5.27831940   0.18898912   0.41662415
 C   5.76506564  -0.87291450   2.18723629
 H   5.40437389  -0.73082112   3.20653132
 C   7.22090129  -0.45622817   2.15197364
 C   5.65451899  -2.36655521   1.84342699
 H   6.25782472  -2.91158281   2.57156744
 H   6.08798283  -2.55378362   0.85843613
 O   7.98979469  -0.57406449   3.06884009
 C   4.21004508  -2.84920906   1.88635249
 H   3.64334303  -2.36134910   1.10464621
 H   3.75469662  -2.55204108   2.83101009
 C   4.08968975  -4.35408088   1.69869371
 H   4.66728328  -4.67811407   0.82703127
 H   4.50976430  -4.86925158   2.56501271
 N   2.69810230  -4.83717654   1.56936434
 H   2.19089733  -4.91201012   2.44016162
 N   2.51904483  -4.22553947  -0.67674624
 H   1.92839858  -3.75052232  -1.33987915
 H   3.44899103  -3.83389810  -0.60147135
 N   0.60073086  -4.79864209   0.53789519
 H   0.28782390  -5.40408153   1.29044367
 H   0.17222562  -5.03091213  -0.35013084
 C   1.95326669  -4.61077565   0.48159559
 O   7.58712848   0.01724217   0.93725192
 H   8.52601983   0.23548585   0.99585125
