21
conf-242
 N  -4.65421748  -3.60161656  -3.10756264
 H  -4.57081154  -3.82468448  -4.10058888
 H  -3.84309098  -4.01293044  -2.63655832
 H  -5.51348189  -4.00180394  -2.73798949
 C  -4.57324083  -2.14836405  -2.87276494
 H  -5.08544661  -1.60964266  -3.67635495
 C  -3.09044421  -1.77606123  -2.87897923
 C  -5.23154492  -1.75643040  -1.54422504
 H  -6.27205356  -2.09042239  -1.58499137
 H  -4.73704699  -2.29806262  -0.73444705
 O  -2.22893578  -2.62452709  -2.66166450
 C  -5.14956571  -0.27289428  -1.30334330
 C  -4.24363564   0.23896042  -0.38151048
 H  -3.66896156  -0.45180625   0.22745064
 C  -5.88484036   0.61054062  -2.08967104
 H  -6.58880631   0.20544716  -2.81353320
 C  -4.04026042   1.61091827  -0.27838645
 H  -3.30820129   1.98804460   0.42828195
 C  -5.68106550   1.98107330  -1.99171550
 H  -6.24042254   2.64894194  -2.63673767
 C  -4.75177744   2.48791017  -1.09152140
 H  -4.58544988   3.55538945  -1.01672970
 N  -2.78794045  -0.48389998  -3.14721166
 H  -3.50092528   0.22548242  -2.99917615
 C  -1.40102679  -0.04896702  -3.13125195
 H  -0.81152087  -0.90444328  -3.47152206
 C  -0.98705294   0.28920504  -1.69750189
 C  -1.17317341   1.10797620  -4.09543870
 H  -1.41872596   2.06260667  -3.61246222
 H  -1.83513189   0.96420776  -4.95081160
 O  -0.92531309   1.44470989  -1.27043431
 O   0.14810756   1.09035775  -4.59060111
 H   0.72796620   1.58805995  -3.97731229
 N  -0.73164368  -0.76823493  -0.90405668
 H  -0.86382209  -1.70081305  -1.27706373
 C  -0.24304570  -0.58613359   0.44890904
 H  -0.77747468   0.26841086   0.88154252
 C   1.26493340  -0.27475262   0.45566172
 C  -0.51871928  -1.82386326   1.28823035
 H  -0.01989396  -2.69296191   0.84069983
 H  -1.59736351  -2.00377549   1.29729821
 O   2.09436489  -1.06778476   0.89427106
 O  -0.10575035  -1.62709998   2.62663316
 H   0.85805240  -1.63330268   2.59404510
 N   1.62469224   0.91251184  -0.07896095
 H   0.91793681   1.53599328  -0.45284803
 C   3.02630662   1.23276633  -0.23736679
 H   3.53939548   0.32441917  -0.57064797
 C   3.65154841   1.69367383   1.09047917
 C   3.20500553   2.34397908  -1.27740186
 H   2.75523621   3.27098678  -0.92093520
 H   4.26867171   2.48987910  -1.47538698
 O   3.08017631   2.43717127   1.87037970
 C   2.50845214   1.90259156  -2.57990643
 O   1.49875766   2.55469605  -2.88823105
 O   2.99848854   0.94071236  -3.16926324
 N   4.92142390   1.24527956   1.29200010
 H   5.36464569   0.71602365   0.56355993
 C   5.75721879   1.86608206   2.29147515
 H   5.18303590   2.71421187   2.67894925
 C   7.01730543   2.46789169   1.70120779
 C   6.07886692   0.93649173   3.45957561
 H   6.82056012   1.43039315   4.09024489
 H   6.53880732   0.02031782   3.08493239
 O   7.96935734   2.81251183   2.35102794
 C   4.82896738   0.61280496   4.26847256
 H   4.06220537   0.19848722   3.61773921
 H   4.41421019   1.53549768   4.67575570
 C   5.12273441  -0.35123545   5.40639094
 H   5.46135199  -1.30397870   4.99297809
 H   5.93917875   0.02935034   6.02922081
 N   3.96450618  -0.66847822   6.26110204
 H   3.30562349  -1.32710524   5.86977458
 N   4.01610779   1.40588543   7.33593968
 H   3.79175968   1.92956997   8.16694471
 H   4.93833377   1.55196835   6.95978056
 N   2.26304863  -0.10645835   7.72702962
 H   2.04238902  -1.09005707   7.81046973
 H   1.97546860   0.45957767   8.51171478
 C   3.43448868   0.21100144   7.12315686
 O   6.94540362   2.63551281   0.36257495
 H   7.77221908   3.06113608   0.09833921
