21
conf-472
 N  -5.74065055  -0.55054395  -5.31349558
 H  -5.69426975  -1.00574342  -6.22621805
 H  -5.90081647  -1.27855322  -4.60793174
 H  -6.49023198   0.14167682  -5.29283450
 C  -4.45487443   0.06753558  -4.95019915
 H  -3.96796705   0.46619827  -5.84390378
 C  -3.59228943  -1.01064702  -4.30566527
 C  -4.66412370   1.21378942  -3.95361451
 H  -5.15600959   0.81329783  -3.06307850
 H  -3.68669140   1.58532235  -3.63974097
 O  -4.09878635  -1.98280349  -3.77244912
 C  -5.49041168   2.32519577  -4.54438103
 C  -4.97082425   3.12700708  -5.55950448
 H  -3.95456856   2.95243935  -5.89499152
 C  -6.80446699   2.53342907  -4.13738637
 H  -7.22904452   1.90313999  -3.36202492
 C  -5.73657922   4.13701513  -6.13337018
 H  -5.30661191   4.75525486  -6.91332671
 C  -7.58318435   3.53094293  -4.71773451
 H  -8.60556852   3.67261088  -4.38747700
 C  -7.04872815   4.33960436  -5.71609799
 H  -7.65065835   5.12076023  -6.16617228
 N  -2.24104413  -0.79853446  -4.34005628
 H  -1.94768875   0.14360065  -4.54279480
 C  -1.41617981  -1.45253164  -3.34565135
 H  -1.91301737  -2.37850938  -3.05630195
 C  -1.26815820  -0.53729811  -2.12615534
 C  -0.03939306  -1.79660533  -3.91484918
 H   0.50626464  -0.87510424  -4.16548750
 H  -0.17806390  -2.38060045  -4.82391534
 O  -1.38469807   0.67195610  -2.20008841
 O   0.68272661  -2.60150382  -3.00503087
 H   1.15482924  -2.02690795  -2.38413174
 N  -0.96241019  -1.17605791  -0.95965561
 H  -0.63625335  -2.12665519  -1.05205160
 C  -0.34652981  -0.41211702   0.10404286
 H  -0.81057068   0.57237968   0.10581023
 C   1.15838499  -0.24621599  -0.17293801
 C  -0.60403540  -1.07006639   1.44755936
 H   0.00348150  -1.97911802   1.55093257
 H  -1.66090872  -1.34860016   1.49183873
 O   1.76408148  -0.94907147  -0.98427645
 O  -0.29151484  -0.10553514   2.44785695
 H  -0.22740565  -0.55100236   3.29655560
 N   1.79244127   0.70679287   0.52124850
 H   1.35777199   1.14728890   1.32060877
 C   3.23185567   0.85661155   0.41185079
 H   3.70884309  -0.12289506   0.53919611
 C   3.64772935   1.76503936   1.58211693
 C   3.65527712   1.40063826  -0.95878321
 H   2.90179041   1.15394060  -1.70420061
 H   3.75709394   2.48799648  -0.93722955
 O   2.85504106   2.13877237   2.43081414
 C   5.01082293   0.81394012  -1.43781820
 O   5.09718569   0.59587417  -2.65212366
 O   5.89500191   0.65250859  -0.56715467
 N   4.94481539   2.10846322   1.58187626
 H   5.55177697   1.65998562   0.88642645
 C   5.45925805   2.92738982   2.65960201
 H   4.67471657   3.64678374   2.91630603
 C   6.68788696   3.66278583   2.18759190
 C   5.78047658   2.06518459   3.88584572
 H   6.55770247   1.34928884   3.60301590
 H   4.87708563   1.49188118   4.10799078
 O   7.49876450   3.23585949   1.40567984
 C   6.20886235   2.83845090   5.12713204
 H   7.12610746   3.40404849   4.94532356
 H   6.43700077   2.11181335   5.91347934
 C   5.13098090   3.77876147   5.64095864
 H   4.96222845   4.58655929   4.93294031
 H   4.18321853   3.23817185   5.75632011
 N   5.56679069   4.34409061   6.93344949
 H   6.13453519   3.72486470   7.49293772
 N   3.65025348   5.67041008   7.14253597
 H   3.25293586   6.50277234   7.54656277
 H   3.45928647   5.52200978   6.16659160
 N   5.19334093   5.50328878   8.90251365
 H   6.17918608   5.41978558   9.10892100
 H   4.74143839   6.29050693   9.34084710
 C   4.80298348   5.18882832   7.64402468
 O   6.81453940   4.86364234   2.79043968
 H   7.64148817   5.24066446   2.46508257
