21
conf-797
 N  -5.75329253  -2.31546132  -4.11440819
 H  -5.38238481  -2.16358581  -5.05510939
 H  -5.46771512  -3.25075019  -3.81502946
 H  -6.77173044  -2.28835016  -4.16117833
 C  -5.23270392  -1.29899647  -3.16558032
 H  -5.46878563  -0.30290851  -3.55141913
 C  -3.71300190  -1.44882038  -3.05237719
 C  -5.85913068  -1.46712239  -1.78189693
 H  -6.94441468  -1.50068332  -1.90370292
 H  -5.53342614  -2.43515187  -1.39900443
 O  -3.19136057  -2.52568855  -2.70911089
 C  -5.46857432  -0.36348322  -0.83695408
 C  -4.25265385  -0.43358382  -0.15145628
 H  -3.63538866  -1.31224583  -0.30707745
 C  -6.26947741   0.76502482  -0.66903646
 H  -7.21987956   0.83004802  -1.18544285
 C  -3.84653960   0.60404587   0.68522965
 H  -2.90784278   0.53929932   1.21360527
 C  -5.86373047   1.80514981   0.16257648
 H  -6.50061606   2.67505449   0.27939525
 C  -4.65133175   1.72837448   0.83978749
 H  -4.33691670   2.53912559   1.48889806
 N  -3.00492479  -0.34059891  -3.36492350
 H  -3.46466428   0.53437913  -3.56781788
 C  -1.56199081  -0.38409693  -3.49527457
 H  -1.30682929  -1.41142906  -3.76629254
 C  -0.88460349  -0.02416884  -2.17472669
 C  -1.14290139   0.58231842  -4.58764080
 H  -1.54641935   0.23872266  -5.54148558
 H  -0.04907827   0.61807444  -4.65847644
 O  -0.51787603   1.12966246  -1.93154577
 O  -1.67812497   1.86904547  -4.35306338
 H  -1.25284327   2.17023082  -3.53968695
 N  -0.70349495  -1.02857858  -1.30524065
 H  -1.18499563  -1.90234489  -1.47299427
 C  -0.00493885  -0.80900636  -0.04661203
 H  -0.28371822   0.19013635   0.30399437
 C   1.51558159  -0.84709029  -0.26023380
 C  -0.39575983  -1.86214228   0.96882632
 H   0.18733752  -1.71096011   1.88191567
 H  -0.15345125  -2.85287761   0.56695850
 O   2.23652275  -1.70351129   0.23881769
 O  -1.78956828  -1.72426618   1.22108443
 H  -2.06519680  -2.43040691   1.81217468
 N   2.01615914   0.12484686  -1.07207227
 H   1.42917631   0.92382553  -1.27207267
 C   3.44916868   0.33337198  -1.08882602
 H   3.92012139  -0.65249936  -1.09270142
 C   3.90318965   1.07755665   0.18163029
 C   3.89018813   1.07424592  -2.34415116
 H   3.49342948   0.55228945  -3.21598631
 H   3.51836622   2.10085941  -2.36006122
 O   3.16261796   1.76675908   0.85877471
 C   5.42644713   1.09446858  -2.52726180
 O   5.85606321   2.00703953  -3.24433506
 O   6.07441708   0.17150154  -1.97747906
 N   5.20432371   0.86104363   0.47903173
 H   5.78488305   0.39989255  -0.23146087
 C   5.76842015   1.40591773   1.67904906
 H   5.05240898   2.14526406   2.05545860
 C   7.05229687   2.16720372   1.42201567
 C   5.97994415   0.35209678   2.77572876
 H   6.41666133   0.86609090   3.62623537
 H   6.70435249  -0.39082660   2.42972899
 O   7.74639391   2.60871912   2.30007715
 C   4.66791573  -0.32624495   3.14550914
 H   4.27769426  -0.86363050   2.27873368
 H   3.92552323   0.43809304   3.38588360
 C   4.76934145  -1.32642812   4.29069538
 H   3.79880599  -1.80894995   4.41918513
 H   5.47920714  -2.12091496   4.04247214
 N   5.11569552  -0.73055343   5.59472842
 H   4.44172106  -0.07549980   5.96406303
 N   7.43935831  -1.01819691   5.41599694
 H   8.29759262  -1.20695176   5.90996925
 H   7.29458894  -1.54689122   4.57010260
 N   6.49396808   0.04646023   7.27907692
 H   5.70423328   0.03598348   7.91224349
 H   7.39523625   0.00008216   7.73164662
 C   6.35087104  -0.60153716   6.09585718
 O   7.32230599   2.33594977   0.11390077
 H   8.13707630   2.85381933   0.06198914
