21
conf-197
 N  -5.19717306  -4.92933787  -4.13998005
 H  -4.86356604  -5.22135343  -5.05903264
 H  -4.67390964  -5.46684572  -3.44481348
 H  -6.19341007  -5.13069297  -4.05042050
 C  -4.93841040  -3.49485233  -3.92022022
 H  -5.36800589  -2.92549581  -4.75014312
 C  -3.43055578  -3.26080746  -3.87542972
 C  -5.59357230  -3.01788117  -2.62426328
 H  -5.13461412  -3.55211147  -1.78998547
 H  -5.37244883  -1.95481746  -2.48800245
 O  -2.64411291  -4.18216430  -3.73998765
 C  -7.08333802  -3.24450268  -2.62120074
 C  -7.90139759  -2.58126965  -3.53103121
 H  -7.45066105  -1.88494496  -4.22802198
 C  -7.66399984  -4.14808023  -1.73688604
 H  -7.03530950  -4.67721641  -1.02797318
 C  -9.27511149  -2.79855999  -3.54647217
 H  -9.89331455  -2.26485459  -4.25966987
 C  -9.03557327  -4.38279239  -1.75334613
 H  -9.46759668  -5.09227765  -1.05694246
 C  -9.84634835  -3.70475691  -2.65845175
 H  -10.91600003  -3.88100410  -2.67177582
 N  -3.04650845  -1.95998769  -3.99044835
 H  -3.72914983  -1.22674180  -3.85987661
 C  -1.69834212  -1.53101944  -3.69715660
 H  -1.14390979  -2.36709003  -3.27156864
 C  -1.82006044  -0.37051307  -2.70778589
 C  -0.98297739  -1.08244022  -4.96134310
 H  -0.00559014  -0.65315462  -4.69783616
 H  -1.57507364  -0.30226318  -5.45530929
 O  -2.84757907   0.27769686  -2.61226842
 O  -0.83729203  -2.23424267  -5.78227424
 H  -0.55587382  -1.95584429  -6.65681524
 N  -0.71588162  -0.09816670  -1.97608171
 H   0.14995939  -0.60327960  -2.08351714
 C  -0.66237930   1.03551761  -1.08229742
 H  -1.13759722   1.89846756  -1.55577404
 C   0.82574373   1.28977180  -0.80576106
 C  -1.40910489   0.74585507   0.22028265
 H  -0.92245205  -0.07561306   0.75826775
 H  -2.43215031   0.45950618  -0.02870951
 O   1.66513782   0.43303117  -0.99835368
 O  -1.40177389   1.92171042   1.01356765
 H  -1.47177965   1.64802541   1.94365500
 N   1.12501676   2.51922107  -0.30780372
 H   0.35320770   3.10469548  -0.02962546
 C   2.39593536   2.72681590   0.37199860
 H   3.17993254   2.23963068  -0.20757655
 C   2.44872127   2.11684327   1.78000857
 C   2.70701004   4.22469585   0.47084272
 H   2.76938397   4.63114741  -0.53723093
 H   1.93690905   4.74940333   1.03809094
 O   3.51368829   1.87915926   2.32107731
 C   4.09885611   4.40372994   1.11013151
 O   5.03542656   3.87047441   0.50718345
 O   4.14780091   5.14227872   2.11936143
 N   1.25609273   1.91935940   2.39595794
 H   0.40034288   2.11923323   1.89769197
 C   1.19022295   1.64351348   3.81271483
 H   2.08849461   1.08489019   4.08700506
 C  -0.00747671   0.77961816   4.12630853
 C   1.14069719   2.92560111   4.66510896
 H   1.00864411   2.63124988   5.70638490
 H   0.26806258   3.51771490   4.38238890
 O  -0.96599933   0.62359491   3.40555478
 C   2.40881839   3.75282301   4.52357463
 H   2.54035841   4.08957059   3.49597457
 H   3.27301149   3.12505907   4.76285768
 C   2.44611577   4.97605040   5.42322124
 H   1.56869128   5.60656383   5.23870351
 H   2.42529938   4.67645203   6.47472271
 N   3.68385586   5.71935337   5.13691312
 H   4.06495185   5.59556722   4.20936476
 N   3.35964316   7.24114289   6.87063071
 H   3.41923084   8.21401493   7.12769270
 H   2.46622554   6.81044606   7.05041609
 N   5.03490188   7.60274037   5.27601954
 H   5.67473520   7.14153723   4.64114032
 H   5.49132329   8.20577831   5.94393791
 C   4.01350578   6.85053700   5.75489779
 O   0.07943549   0.21139758   5.33561955
 H  -0.73764821  -0.28694206   5.46648630
