21
conf-742
 N  -2.60636016  -5.18121687  -2.19523548
 H  -2.79044717  -5.50382553  -3.14433275
 H  -1.62854153  -4.87215307  -2.15373628
 H  -2.73291683  -5.94667065  -1.53788999
 C  -3.42414145  -4.00457097  -1.84763988
 H  -4.41882863  -4.09200115  -2.29988019
 C  -2.72547902  -2.78627546  -2.45117656
 C  -3.58518532  -3.87258629  -0.32475594
 H  -4.08514847  -2.92498184  -0.10614119
 H  -4.24485309  -4.67603116   0.01745395
 O  -1.54806483  -2.83027111  -2.79584310
 C  -2.27331765  -3.96877385   0.40346470
 C  -1.83771715  -5.18058457   0.94242298
 H  -2.48603329  -6.04750956   0.89408489
 C  -1.43057415  -2.86315188   0.51379059
 H  -1.74418240  -1.91338854   0.11784707
 C  -0.58102128  -5.29708141   1.53248526
 H  -0.26218984  -6.25155401   1.93349591
 C  -0.17042975  -2.97317506   1.08963351
 H   0.46231737  -2.10158789   1.13317803
 C   0.26292882  -4.19085290   1.59773667
 H   1.24406312  -4.27721967   2.05339402
 N  -3.47876412  -1.67151169  -2.56964790
 H  -4.38955689  -1.63775070  -2.14582657
 C  -2.93462314  -0.46539455  -3.16753991
 H  -2.12932374  -0.78975799  -3.82958533
 C  -2.35317481   0.43859286  -2.06491251
 C  -3.98011969   0.26529062  -3.97654574
 H  -4.70794109   0.74505388  -3.31247258
 H  -4.49965671  -0.46168536  -4.60866490
 O  -2.90627845   1.45707631  -1.68274588
 O  -3.28242208   1.21767581  -4.77297520
 H  -3.92393409   1.82063698  -5.15409095
 N  -1.20614516  -0.01455896  -1.50236060
 H  -0.76009871  -0.87147206  -1.81125333
 C  -0.48418453   0.77192631  -0.52691550
 H  -0.51913739   1.82680780  -0.80721926
 C   0.96488248   0.25330063  -0.52630078
 C  -1.10746506   0.64055690   0.86270317
 H  -0.94391019  -0.38568170   1.22740169
 H  -2.18528249   0.81290786   0.77192212
 O   1.24998067  -0.84562814  -0.98049198
 O  -0.50542480   1.59212435   1.72256428
 H  -0.73562037   1.34798574   2.63022094
 N   1.87730758   1.06868312   0.03851888
 H   1.57691855   1.87823920   0.56416310
 C   3.20135481   0.55998838   0.35105655
 H   3.11262566  -0.48760757   0.66651853
 C   3.75627572   1.39896334   1.50602545
 C   4.13099985   0.55912770  -0.85573382
 H   3.67468040  -0.04456481  -1.63942819
 H   4.29975188   1.56575973  -1.24027709
 O   3.27102339   2.47788691   1.79599163
 C   5.49671739  -0.07832552  -0.50569341
 O   6.47109574   0.36719555  -1.12531717
 O   5.48362848  -0.99899310   0.34425087
 N   4.78045481   0.83671674   2.18862606
 H   5.15271122  -0.05694524   1.85842993
 C   5.18865117   1.39963639   3.45315311
 H   4.77955068   2.41728392   3.47290850
 C   6.69073277   1.56576019   3.56879311
 C   4.61686171   0.63414512   4.65498191
 H   4.99730874   1.10631615   5.56139885
 H   4.99079657  -0.39167684   4.64734456
 O   7.27783740   1.64379558   4.61674390
 C   3.09465345   0.65751175   4.63582647
 H   2.73337989   0.12729577   3.76338011
 H   2.75521012   1.68829168   4.53796855
 C   2.42703373   0.04921902   5.85895816
 H   2.66128838  -1.01538521   5.94904035
 H   2.78424168   0.53508697   6.76807746
 N   0.95499063   0.23576852   5.86723354
 H   0.66201023   1.15744936   6.16255867
 N   0.57811246  -1.44274238   4.30127569
 H   0.11885706  -1.71839984   3.44557021
 H   1.55188750  -1.69108560   4.36735765
 N  -1.05593282   0.18109321   4.65173937
 H  -1.43334042   0.81011455   5.35285593
 H  -1.73163346  -0.51327167   4.35515201
 C   0.17459020  -0.34145754   4.95056285
 O   7.30396333   1.68395406   2.37666211
 H   8.24086536   1.82303820   2.56929622
