21
conf-746
 N  -4.62523424   1.34396585  -5.68866105
 H  -3.91487029   1.69315825  -6.33432192
 H  -4.86141705   0.39056995  -5.97644784
 H  -5.45501114   1.93010810  -5.75812512
 C  -4.11583600   1.27839193  -4.30576124
 H  -3.61261065   2.21513762  -4.04945473
 C  -3.13193463   0.11167281  -4.21222617
 C  -5.26142543   1.05287926  -3.31303010
 H  -5.99465554   1.84877635  -3.46964006
 H  -5.73495558   0.10214157  -3.56704432
 O  -3.27282953  -0.89598854  -4.88818074
 C  -4.78443606   1.03959984  -1.88496483
 C  -4.58889881  -0.16296325  -1.20980545
 H  -4.78904137  -1.09847549  -1.72250668
 C  -4.47977030   2.23482333  -1.23831884
 H  -4.60967647   3.16813213  -1.77898227
 C  -4.11351154  -0.16690390   0.10047775
 H  -3.96791762  -1.11015465   0.61429781
 C  -4.01239718   2.23649402   0.07366192
 H  -3.79184029   3.17625454   0.56483222
 C  -3.83095235   1.03160069   0.74662012
 H  -3.47074750   1.02784875   1.76760826
 N  -2.13467615   0.26073371  -3.30983839
 H  -2.13437514   1.03610129  -2.66044599
 C  -1.26816314  -0.84229165  -2.96362082
 H  -1.83873389  -1.77706885  -2.93200601
 C  -0.68413050  -0.52040886  -1.59209476
 C  -0.14365360  -1.01891414  -3.98070011
 H   0.47381384  -0.11659911  -3.98236821
 H  -0.58131307  -1.15046383  -4.97397737
 O  -0.66593235   0.61788834  -1.14989955
 O   0.61678871  -2.15070995  -3.60594007
 H   1.52949320  -1.95558231  -3.92223493
 N  -0.14335268  -1.57815662  -0.93650071
 H   0.15640733  -2.33556881  -1.54410061
 C   0.62974302  -1.34699614   0.27557319
 H   0.20203866  -0.44672814   0.72517129
 C   2.10245077  -1.11100760  -0.06860399
 C   0.46605882  -2.53673782   1.20941889
 H   1.02866168  -2.36050023   2.12717889
 H   0.89117194  -3.42627847   0.72721894
 O   2.99606279  -1.83191047   0.35018825
 O  -0.88830898  -2.72505105   1.57188485
 H  -1.37409446  -2.77795696   0.74360327
 N   2.34223372  -0.06864942  -0.91345334
 H   1.62951518   0.63514985  -1.05459303
 C   3.70275885   0.28097357  -1.25378325
 H   4.33758941  -0.50880923  -0.85334835
 C   4.02667772   1.62371991  -0.59610520
 C   3.90438272   0.38304855  -2.76716933
 H   3.29336152   1.18215844  -3.18569464
 H   4.95804548   0.58095932  -2.97839221
 O   3.24368387   2.56142270  -0.65704354
 C   3.57569938  -0.97653401  -3.42108246
 O   2.72685506  -0.97306517  -4.32530376
 O   4.18579679  -1.95642733  -3.00297240
 N   5.23075157   1.70256004   0.02346427
 H   5.91838999   0.97314007  -0.10119127
 C   5.70976785   2.95933572   0.55471580
 H   5.14766476   3.76731276   0.07778114
 C   7.17293488   3.10117803   0.20132662
 C   5.53128650   3.08050438   2.07522517
 H   5.93420530   4.05091679   2.36776185
 H   6.12967563   2.31773629   2.57562033
 O   7.88392945   2.21088639  -0.18947370
 C   4.07038516   2.97143859   2.48764734
 H   3.71333053   1.96136559   2.31791917
 H   3.46119393   3.63215135   1.86844939
 C   3.84028698   3.31401202   3.95332264
 H   4.12861237   4.34846741   4.15222055
 H   2.77812684   3.23605767   4.20678511
 N   4.62574118   2.48723175   4.88883091
 H   5.55671712   2.82202228   5.08690620
 N   3.33723723   0.57078568   4.52647368
 H   3.00156345  -0.25100712   5.00803999
 H   2.60160823   1.18776949   4.21170735
 N   5.27782812   0.44437881   5.82207972
 H   6.18714587   0.85040077   6.00741576
 H   5.30966038  -0.54574036   5.62167281
 C   4.42076618   1.18030962   5.06695899
 O   7.61051426   4.35988094   0.40191987
 H   8.54840035   4.35597848   0.17216250
