21
conf-34
 N  -0.47752549  -4.27769960   2.12974232
 H  -1.36100933  -4.58562772   1.74167071
 H   0.23750653  -4.60695417   1.48677018
 C  -0.41383150  -2.81807820   2.18138519
 H  -1.35231839  -2.44870619   2.61055608
 C  -0.24265588  -2.19802867   0.79012936
 C   0.78293719  -2.38393254   3.05855666
 H   1.59174974  -3.09303246   2.86003575
 H   1.14434144  -1.40172986   2.74803010
 O   0.48180203  -2.70012710  -0.05041246
 C   0.48720998  -2.31770885   4.54136551
 C   0.28444414  -1.18726633   5.23605277
 H   0.30641460  -0.16707683   4.89919515
 C   0.38822969  -3.40777903   5.48467243
 C   0.11000770  -2.87326683   6.73493632
 C   0.51876879  -4.79862016   5.34527967
 H   0.70652282  -5.23267690   4.37059274
 N   0.00984214  -1.43146691   6.63483988
 H   0.66596203  -0.94559439   7.25510634
 C   0.10650112  -5.04392782   7.71454074
 H   0.00028003  -5.68488251   8.58067026
 C  -0.03455303  -3.66488476   7.86220183
 H  -0.24882966  -3.22256351   8.82906925
 C   0.37931178  -5.60541773   6.46358636
 H   0.48268787  -6.67941719   6.36556171
 N  -0.90927366  -1.03196704   0.58510336
 H  -1.54186910  -0.69388235   1.28991618
 C  -0.66740217  -0.19837610  -0.58776270
 H  -1.24415580   0.71058533  -0.38946049
 C   0.82862446   0.17629065  -0.63591972
 C  -1.14727637  -0.78338672  -1.93490059
 H  -0.39507215  -1.50789387  -2.25499805
 O   1.56451776  -0.05636462  -1.58688985
 C  -1.22840317   0.35824201  -2.95906480
 H  -2.10210067   0.96683682  -2.70784504
 H  -0.35646629   1.01174856  -2.83438363
 C  -2.50109192  -1.47838295  -1.80579868
 H  -3.24366117  -0.79604825  -1.38112928
 H  -2.86590771  -1.79265857  -2.78505420
 H  -2.44407551  -2.36761525  -1.17757527
 C  -1.30262771  -0.11101496  -4.40614544
 H  -1.36518425   0.74002791  -5.08609992
 H  -2.16966384  -0.74762630  -4.58771956
 H  -0.41086377  -0.68656953  -4.67186055
 N   1.26955033   0.80614202   0.48239970
 H   0.80184537   0.73588897   1.37126874
 C   2.63394456   1.19374523   0.65917259
 H   3.30415740   0.51369423   0.11807651
 C   2.91456346   1.08156872   2.19345747
 C   2.96777554   2.63804616   0.25497218
 H   2.29531860   3.32359831   0.78259132
 H   3.97868043   2.81985373   0.61654524
 O   4.07731239   1.26565937   2.55642670
 C   2.87182203   2.86433893  -1.24617174
 H   1.83666631   2.73803028  -1.57023158
 H   3.45586266   2.09935437  -1.76401396
 C   3.31906491   4.24605684  -1.71221164
 H   3.13714870   4.32651935  -2.78532821
 H   2.71623433   5.02534530  -1.23702111
 N   4.75273766   4.52377719  -1.50800799
 H   5.38831309   3.92283696  -2.01255430
 N   4.53507111   5.57415323   0.58040015
 H   4.88044438   6.29411473   1.19537508
 H   3.53299903   5.50503842   0.49728868
 N   6.64201631   5.25770936  -0.39933268
 H   7.14024140   5.26546948  -1.28051647
 H   7.03339224   5.86102360   0.30926326
 C   5.29095619   5.14519086  -0.45115420
 O   1.91397633   0.80725841   2.89878417
 H  -0.91500320  -1.08322855   6.90974661
