21
conf-879
 N  -1.76226686  -3.58781573   2.73468481
 H  -2.57382078  -3.56805889   2.12933512
 H  -1.15898583  -4.30694984   2.35404355
 C  -1.06620106  -2.31221775   2.68468755
 H  -1.78164658  -1.52680927   2.96067488
 C  -0.52076219  -1.98736126   1.28881689
 C   0.05135307  -2.29418151   3.74139031
 H   0.55775357  -1.32325883   3.73475091
 H  -0.43882976  -2.40491566   4.71431294
 O  -0.19992282  -2.85952611   0.49681496
 C   1.07009949  -3.39667842   3.57251585
 C   0.89007676  -4.68474909   3.88930687
 H   0.01979464  -5.16293843   4.29956644
 C   2.40404056  -3.28397176   3.03610208
 C   2.98526985  -4.54859551   3.05409882
 C   3.13323750  -2.18231135   2.56660852
 H   2.70169427  -1.18799075   2.55006371
 N   2.04145312  -5.50534611   3.59825367
 H   2.39684217  -5.99023175   4.42940737
 C   5.00109286  -3.66820736   2.14280984
 H   6.01630990  -3.81119266   1.79331105
 C   4.27724988  -4.76711256   2.60697479
 H   4.71301938  -5.75985900   2.62183032
 C   4.43256594  -2.38952524   2.12964900
 H   5.01158529  -1.54660575   1.78555822
 N  -0.45187626  -0.65535788   1.01925229
 H  -0.76481400  -0.02625822   1.73678149
 C  -0.02678282  -0.05548583  -0.24923912
 H  -0.39819993   0.97176164  -0.20618552
 C   1.50421853   0.00431522  -0.26436885
 C  -0.62284473  -0.70365501  -1.50819071
 H  -0.12637136  -1.66087137  -1.66983070
 O   2.21573914  -0.93026269  -0.61043203
 C  -0.41888379   0.17443249  -2.75296565
 H  -0.99509181  -0.29207277  -3.56053106
 H  -0.88936920   1.14413576  -2.56495306
 C  -2.13064305  -0.92203446  -1.35616016
 H  -2.63445271   0.03023003  -1.16635295
 H  -2.53519147  -1.34759698  -2.27653817
 H  -2.37110533  -1.60744471  -0.54705785
 C   1.01017803   0.36687338  -3.23912073
 H   1.01026734   0.78825393  -4.24629653
 H   1.54975902  -0.58218708  -3.27049275
 H   1.57254093   1.05589635  -2.60591224
 N   2.02272604   1.20297534   0.12833585
 H   1.44372523   1.87801783   0.59850634
 C   3.43677150   1.38870127   0.32522770
 H   3.94735729   0.48835103  -0.01281003
 C   3.65771617   1.58767465   1.85944834
 C   3.95907761   2.64402248  -0.34414816
 H   3.83986462   2.55557933  -1.42684623
 H   3.33805566   3.48122250  -0.01550462
 O   3.18832048   2.64424131   2.33104627
 C   5.42059902   2.87603753   0.03022201
 H   6.05710194   2.24563381  -0.59719861
 H   5.58836589   2.55265068   1.05908736
 C   5.84344780   4.32892811  -0.11539734
 H   6.93018084   4.41171957  -0.03560907
 H   5.56205880   4.71220601  -1.10105928
 N   5.22414781   5.13695248   0.95160660
 H   4.51745134   4.68104996   1.51448212
 N   5.93436686   7.14718662   0.01607207
 H   6.14170555   8.12085837   0.16818240
 H   6.60588224   6.63829402  -0.53531388
 N   4.52770082   7.14468383   1.89675419
 H   4.27690210   6.64631271   2.73994578
 H   4.75877234   8.11607725   2.04129754
 C   5.25198913   6.47062134   0.96593601
 O   4.25202935   0.67436464   2.44899788
 H   1.80501736  -6.25225645   2.93687571
