21
conf-578
 N  -0.12759992   0.63576889   3.35011571
 H  -0.06294922   0.54546724   4.35668183
 H   0.80728704   0.50476651   2.98575540
 C  -1.08141440  -0.32001626   2.81180094
 H  -0.71374363  -1.35699825   2.89092450
 C  -1.24432590  -0.02877308   1.31539110
 C  -2.40110145  -0.26817274   3.57092570
 H  -3.11343826  -0.94154965   3.08113106
 H  -2.22209614  -0.71689204   4.55700954
 O  -2.03709294   0.78324594   0.86191164
 C  -3.04998625   1.08518713   3.75263141
 C  -2.56825368   2.31516880   3.53082663
 H  -1.61750611   2.62328005   3.15427958
 C  -4.39485633   1.25675568   4.26051594
 C  -4.66500310   2.61768170   4.32069644
 C  -5.36398436   0.32928952   4.66311732
 H  -5.16404426  -0.73520727   4.62427140
 N  -3.51371548   3.35874054   3.85082512
 H  -3.12900231   4.00390678   4.54923009
 C  -6.84441623   2.17582998   5.17330076
 H  -7.80336375   2.52861036   5.53094588
 C  -5.88092896   3.10241789   4.77265636
 H  -6.07702785   4.16812738   4.81367509
 C  -6.58552212   0.80093579   5.11820817
 H  -7.34913637   0.09962915   5.43400983
 N  -0.40751896  -0.74828297   0.51406793
 H   0.29554927  -1.33496891   0.92883898
 C  -0.24279252  -0.40601341  -0.88327919
 H  -0.86726531   0.47188705  -1.04066913
 C   1.19287942   0.04310134  -1.19201259
 C  -0.71781722  -1.50717717  -1.84657965
 H  -0.47369931  -1.13857541  -2.84865020
 O   1.68741849  -0.06605164  -2.30600169
 C  -2.23449349  -1.70070308  -1.76427746
 H  -2.48741385  -2.57897940  -2.36566744
 H  -2.50709308  -1.94660840  -0.73373340
 C   0.00549555  -2.83343311  -1.61692563
 H  -0.26011108  -3.24944226  -0.64301178
 H  -0.28479698  -3.55636542  -2.38171707
 H   1.08781233  -2.70485314  -1.66079460
 C  -3.04617067  -0.51065896  -2.25995221
 H  -4.11297510  -0.73994808  -2.23864736
 H  -2.77957545  -0.25746584  -3.29008448
 H  -2.88644054   0.37591183  -1.64298264
 N   1.84005166   0.61925140  -0.15604280
 H   1.51342133   0.56221516   0.79412610
 C   3.23557828   0.93135033  -0.18697268
 H   3.80860800   0.09660130  -0.60884548
 C   3.64787109   1.08785866   1.31030030
 C   3.59537626   2.19024889  -0.97241785
 H   4.68712476   2.26704361  -0.97358739
 H   3.27431830   2.02215242  -1.99932925
 O   4.79164600   1.45317350   1.55930887
 C   2.97208462   3.45831994  -0.40562655
 H   3.32560550   3.63333807   0.61707722
 H   1.89234967   3.33508786  -0.35267126
 C   3.28284972   4.69678017  -1.23509287
 H   2.79847791   5.57368820  -0.79577934
 H   4.35529053   4.89945448  -1.21911888
 N   2.91542025   4.60746139  -2.66009612
 H   3.61520843   4.19999653  -3.26323407
 N   0.62838417   4.61696386  -2.21089446
 H  -0.30173059   4.76305411  -2.56903022
 H   0.82708196   5.06299892  -1.32981491
 N   1.41153979   4.14476726  -4.37240062
 H   2.14881880   4.32113837  -5.04196130
 H   0.47642490   4.28835640  -4.72456184
 C   1.65137587   4.47767018  -3.07906268
 O   2.73288484   0.78301572   2.11783169
 H  -3.71445174   3.94431113   3.03363122
