21
conf-883
 N  -1.16761901  -4.37287912   1.50773302
 H  -1.99523019  -4.52772962   0.94450921
 H  -0.38437759  -4.70277005   0.95030122
 C  -0.97823144  -2.94931093   1.77514280
 H  -1.94162975  -2.52640940   2.08357426
 C  -0.49894414  -2.18543968   0.53281149
 C   0.06778217  -2.76874778   2.89871299
 H   0.82480980  -3.54511860   2.75595319
 H   0.58022784  -1.81107190   2.79588842
 O   0.30478230  -2.66266065  -0.24945786
 C  -0.49363888  -2.83012398   4.30276344
 C  -0.68648753  -1.76996183   5.10280644
 H  -0.47315630  -0.73208579   4.92134051
 C  -0.90015213  -3.99559890   5.05325754
 C  -1.34596890  -3.57422673   6.29807441
 C  -0.91052472  -5.36600247   4.74777502
 H  -0.59224795  -5.70796689   3.77041467
 N  -1.25197765  -2.13120599   6.38402725
 H  -0.67433228  -1.81886606   7.17141427
 C  -1.79391419  -5.82002516   6.95154766
 H  -2.13866136  -6.53434583   7.68855044
 C  -1.79599429  -4.46103405   7.26213413
 H  -2.13669994  -4.10639014   8.22885946
 C  -1.35539281  -6.26748375   5.70181988
 H  -1.36280975  -7.32687494   5.47514195
 N  -0.99231030  -0.92998639   0.39475296
 H  -1.67600098  -0.59013737   1.04861540
 C  -0.41550458   0.01743051  -0.55571218
 H  -0.86935840   0.96812236  -0.26789556
 C   1.10756225   0.12261478  -0.30921987
 C  -0.74960912  -0.23676729  -2.04584596
 H   0.10488520  -0.75986854  -2.48539696
 O   1.96173877  -0.02774822  -1.17419078
 C  -0.95919213   1.09928019  -2.77477094
 H  -1.19391601   0.86983623  -3.82014618
 H  -1.85533571   1.56662448  -2.35605803
 C  -1.99480916  -1.09584167  -2.25525133
 H  -2.87317802  -0.63893667  -1.79374605
 H  -2.19146017  -1.19769751  -3.32457844
 H  -1.86388376  -2.09862998  -1.85254004
 C   0.19832297   2.08437199  -2.73297302
 H  -0.03693149   2.97104698  -3.32288233
 H   1.11484171   1.64428093  -3.13125935
 H   0.40591736   2.41778123  -1.71401958
 N   1.43610923   0.40500743   0.97386008
 H   0.80669346   0.31176724   1.75499660
 C   2.79213023   0.45884762   1.42518108
 H   3.32515535  -0.46596556   1.16513531
 C   2.69871187   0.52072751   2.98249789
 C   3.62054732   1.63473817   0.91050292
 H   4.58547831   1.58122860   1.42581414
 H   3.81056072   1.48110439  -0.15125727
 O   3.73386444   0.76633866   3.60485144
 C   2.97093493   2.99464891   1.13705076
 H   2.79328537   3.14971375   2.19923460
 H   2.00333015   3.03111265   0.64189908
 C   3.84447045   4.11785423   0.60221793
 H   4.84199601   4.07650144   1.05346623
 H   3.98016888   3.98396684  -0.47306262
 N   3.28441256   5.47058349   0.77389198
 H   2.54678210   5.71459229   0.12779468
 N   3.76803175   5.51889413   3.05850218
 H   3.95047701   6.08854675   3.86942803
 H   4.39459782   4.74440805   2.91552484
 N   2.48643574   7.21880055   2.06681190
 H   2.36824075   7.75944397   1.22024014
 H   2.59677309   7.76705367   2.90709603
 C   3.20347021   6.07286854   1.96922776
 O   1.56472401   0.26539005   3.44535444
 H  -2.16414343  -1.68815812   6.53887783
