21
conf-605
 N  -2.01197760  -2.66176202   2.47421817
 H  -1.92426402  -3.51981087   1.93722674
 H  -2.41633661  -2.92565723   3.36497819
 C  -0.67480996  -2.09890422   2.69383004
 H  -0.79874605  -1.23303792   3.34759589
 C  -0.17630967  -1.63149197   1.33100894
 C   0.30515747  -3.07104980   3.35026137
 H  -0.19871378  -3.51655343   4.21514953
 H   0.49851304  -3.89097337   2.65341429
 O   0.60514390  -2.28274020   0.65236136
 C   1.60769552  -2.43391069   3.77882926
 C   1.93508131  -1.13461645   3.81488583
 H   1.37629533  -0.25265951   3.59317905
 C   2.77907670  -3.16182171   4.21411707
 C   3.78636717  -2.24292465   4.47527482
 C   3.02434929  -4.53302341   4.38096424
 H   2.24813979  -5.26623280   4.18961384
 N   3.30309043  -0.90310490   4.22302099
 H   3.87151886  -0.39779178   3.50959417
 C   5.28862201  -3.99679366   5.04894147
 H   6.26711134  -4.32806833   5.37258899
 C   5.04886714  -2.63057258   4.88266017
 H   5.82826777  -1.89800065   5.06911094
 C   4.28202084  -4.93694094   4.80178624
 H   4.49016688  -5.99179411   4.93728777
 N  -0.72667092  -0.46062369   0.90441688
 H  -1.53858728  -0.11393347   1.38149103
 C  -0.50175560   0.04360686  -0.44268060
 H  -0.99365078   1.02084760  -0.45857322
 C   1.01088526   0.24762097  -0.64783100
 C  -1.12823436  -0.82525462  -1.56074710
 H  -0.43163799  -1.64464058  -1.75433506
 O   1.63633108  -0.21811034  -1.59289695
 C  -1.27865692   0.02720625  -2.82841874
 H  -2.09097085   0.73911886  -2.65301916
 H  -0.37255544   0.62530380  -2.97129458
 C  -2.48070126  -1.39817698  -1.13705947
 H  -3.15389018  -0.59498585  -0.81799861
 H  -2.95735953  -1.91298268  -1.97220083
 H  -2.38704982  -2.11565137  -0.32011793
 C  -1.55023346  -0.78550366  -4.08873818
 H  -1.64928997  -0.12980578  -4.95523827
 H  -2.46512219  -1.37400023  -4.00962770
 H  -0.72774743  -1.47932776  -4.28622127
 N   1.60854388   1.00417185   0.31187143
 H   1.10080046   1.27846610   1.13400567
 C   3.04233719   1.05674554   0.43115881
 H   3.47866858   0.23465471  -0.14376355
 C   3.42024526   0.89159762   1.93820048
 C   3.65141397   2.37672189  -0.03179849
 H   3.21333587   3.19260278   0.54462758
 H   4.71481717   2.33639648   0.22151813
 O   4.47603748   0.27144660   2.14314932
 C   3.47782811   2.63236365  -1.52327401
 H   2.42225609   2.72444520  -1.76846950
 H   3.85364428   1.77917429  -2.08906112
 C   4.19408389   3.89617976  -1.96675924
 H   3.75055410   4.75626262  -1.45937506
 H   5.25166777   3.86278684  -1.67860761
 N   4.05230504   4.15405823  -3.41067720
 H   3.72664295   5.07389277  -3.66416790
 N   5.70878386   2.60551300  -3.98148891
 H   6.07463204   1.97853676  -4.67934085
 H   5.69397349   2.25665014  -3.03777482
 N   4.70534613   3.95160124  -5.62440768
 H   3.81877958   4.36337337  -5.88641231
 H   5.08552018   3.32859592  -6.32273783
 C   4.81551660   3.54853410  -4.33066338
 O   2.67456757   1.46299415   2.74756254
 H   3.32545636  -0.30584564   5.06451147
