21
conf-123
 N  -2.06374422  -3.97944457   2.29636124
 H  -3.05285217  -3.85595152   2.11638629
 H  -1.72758312  -4.62009338   1.58258081
 C  -1.35633968  -2.71738922   2.13617198
 H  -1.84584022  -1.95026394   2.74771071
 C  -1.31463821  -2.25033866   0.68063263
 C   0.10024379  -2.87730780   2.61336084
 H   0.48590111  -3.78809267   2.14683007
 H   0.70592172  -2.04850060   2.25530392
 O  -1.03964044  -3.02518709  -0.21969584
 C   0.22032122  -2.96989268   4.11566204
 C   0.38376308  -4.08182763   4.84150854
 H   0.48280199  -5.10178416   4.50804283
 C   0.15347246  -1.86635550   5.04297828
 C   0.24847122  -2.38023942   6.32843606
 C   0.02175146  -0.48311312   4.85122197
 H  -0.01855310  -0.06502292   3.85139394
 N   0.40667854  -3.82145708   6.26699695
 H  -0.33856087  -4.32317245   6.76147035
 C   0.04077469  -0.19403208   7.25350358
 H  -0.00935314   0.46201459   8.11345083
 C   0.18792169  -1.56796361   7.44937387
 H   0.25376220  -1.98767393   8.44717828
 C  -0.03619751   0.34338678   5.96492565
 H  -0.14277636   1.41373372   5.83550827
 N  -1.54246338  -0.92968076   0.47163863
 H  -1.81391678  -0.34604826   1.24377355
 C  -1.23897158  -0.28968549  -0.80936967
 H  -1.38689058   0.77285717  -0.60990037
 C   0.25360537  -0.52294857  -1.12821425
 C  -2.18153998  -0.68872137  -1.96426934
 H  -1.95915105  -1.72564684  -2.21800642
 O   0.66985165  -1.04697294  -2.15261910
 C  -1.95285433   0.16158122  -3.23066571
 H  -1.05737890  -0.17974222  -3.75470309
 H  -2.78863693  -0.04163286  -3.91052882
 C  -3.65093008  -0.60261494  -1.54352405
 H  -3.92456531   0.42073894  -1.27436780
 H  -4.28479670  -0.90986407  -2.37954692
 H  -3.88074776  -1.25832073  -0.70383323
 C  -1.86066382   1.66366926  -2.97986803
 H  -1.93340763   2.21706418  -3.91757565
 H  -0.90988680   1.93440742  -2.51455744
 H  -2.66141401   2.00909917  -2.32253073
 N   1.09121491  -0.08892386  -0.14777733
 H   0.79266664   0.03741377   0.80524158
 C   2.50772535  -0.28416533  -0.19975120
 H   2.75573272  -1.18952895  -0.76997880
 C   2.96631852  -0.47315882   1.28594811
 C   3.30449307   0.89598064  -0.76599682
 H   3.08763762   1.79857944  -0.19066322
 H   4.36146655   0.65988233  -0.61523838
 O   4.15265217  -0.74561812   1.46892164
 C   3.04017312   1.14860350  -2.24147908
 H   2.00772076   1.46611474  -2.39349754
 H   3.16882869   0.21574132  -2.79880022
 C   3.97133463   2.20188046  -2.80872659
 H   5.00643094   1.91306220  -2.61656309
 H   3.84440966   2.28482113  -3.89434298
 N   3.70223871   3.49971321  -2.15109254
 H   2.72346420   3.67815039  -1.97960741
 N   5.61956451   4.50230257  -3.02782937
 H   5.99715367   5.33804218  -3.44702353
 H   5.79638484   3.65233537  -3.54071423
 N   3.97124063   5.80490034  -1.98276121
 H   3.29677859   5.78012477  -1.22767156
 H   4.67846401   6.51561172  -1.85702005
 C   4.42901565   4.59614764  -2.40153369
 O   2.05879608  -0.32531602   2.14401720
 H   1.27554985  -4.14663818   6.70437501
