21
conf-746
 N  -2.36386245  -3.30025870   2.41401702
 H  -2.66355361  -3.69975522   3.29569880
 H  -3.05099823  -2.59731410   2.16853133
 C  -1.04055165  -2.70095225   2.57237921
 H  -1.03138389  -1.85880642   3.28838149
 C  -0.59059291  -2.19526319   1.20011612
 C  -0.07371411  -3.78058156   3.04384234
 H  -0.51269959  -4.27004866   3.91499869
 H  -0.01048276  -4.52708495   2.25084962
 O  -0.27229938  -2.96786043   0.30221851
 C   1.29924256  -3.26429275   3.38267501
 C   2.29345091  -3.01596539   2.51877939
 H   2.28720319  -3.07833592   1.44551332
 C   1.80101496  -2.92796760   4.69648962
 C   3.12044070  -2.52096168   4.56010636
 C   1.20542869  -2.94507167   5.96602649
 H   0.17745277  -3.26119644   6.09574494
 N   3.52121006  -2.61984198   3.16721329
 H   4.23935608  -3.35307419   3.05086863
 C   3.28263586  -2.11917008   6.89838273
 H   3.85466724  -1.80218955   7.76077655
 C   3.88053781  -2.10233821   5.63529756
 H   4.90603312  -1.77001544   5.50023292
 C   1.95677227  -2.54081328   7.05735622
 H   1.51223545  -2.54889497   8.04568268
 N  -0.64497514  -0.84834706   1.05027156
 H  -0.85777587  -0.30316950   1.86625853
 C  -0.12949382  -0.09741073  -0.10113273
 H  -0.55783310   0.90206544   0.01205668
 C   1.38701880   0.02936615   0.05024609
 C  -0.56723235  -0.62558966  -1.47503750
 H  -0.02600202  -1.54905311  -1.67893561
 O   2.17618013  -0.86217839  -0.24576052
 C  -0.26146686   0.37233730  -2.60296072
 H  -0.75269709  -0.01575049  -3.50293814
 H  -0.75757505   1.31868255  -2.36930035
 C  -2.07311454  -0.89793887  -1.50239624
 H  -2.63264952   0.02091090  -1.30660659
 H  -2.36072145  -1.27244955  -2.48661012
 H  -2.36260479  -1.64673094  -0.76885966
 C   1.20808357   0.60639042  -2.92484338
 H   1.30818364   1.09766718  -3.89465320
 H   1.75513373  -0.33788085  -2.96672322
 H   1.69527800   1.24624316  -2.18889437
 N   1.82709479   1.23800052   0.50233060
 H   1.19997706   1.77067320   1.08237482
 C   3.22153793   1.36503181   0.87826068
 H   3.83713484   0.97194240   0.06802864
 C   3.43602136   0.50564339   2.17022412
 C   3.54002115   2.82751481   1.16152288
 H   3.17375390   3.40312759   0.30916557
 H   2.95837025   3.13496709   2.03464504
 O   2.68631937   0.75939308   3.11194790
 C   5.02329117   3.12628134   1.35565723
 H   5.58387195   2.71814843   0.51261769
 H   5.40676942   2.64281403   2.25185610
 C   5.28922841   4.62030265   1.45845530
 H   4.95929624   5.11204296   0.54095780
 H   4.70585036   5.05535994   2.27674452
 N   6.70931423   4.98129863   1.62006140
 H   7.26242539   4.95499331   0.77483146
 N   6.76707447   4.29782526   3.85152945
 H   7.21177759   4.39259007   4.75074139
 H   5.76048570   4.31642130   3.85796593
 N   8.73606529   4.93742667   2.74244022
 H   9.11087548   5.56525822   2.04375798
 H   9.20841824   4.96630003   3.63397374
 C   7.39271584   4.75638510   2.75087283
 O   4.35290409  -0.33185599   2.10631438
 H   3.94179349  -1.74135885   2.79492458
