21
conf-126
 N  -9.10439600   1.09560471   7.20791079
 H  -9.32870142   0.10332321   7.28709133
 H  -9.84146435   1.63731406   7.65487160
 H  -8.22856888   1.23895565   7.71253012
 C  -8.91819926   1.47849913   5.79437722
 H  -9.81307740   1.21691423   5.22207463
 C  -7.73057426   0.67536240   5.24802270
 C  -8.70366022   2.99069956   5.66577958
 H  -7.74667418   3.24327021   6.12858710
 H  -9.49737100   3.47523215   6.24139691
 O  -6.93417786   0.13962980   5.99862971
 C  -8.73527383   3.45287820   4.23309187
 C  -7.55055073   3.64458376   3.53488058
 H  -6.60340799   3.47638758   4.04036537
 C  -9.94890281   3.57910733   3.55755863
 H  -10.87195130   3.41639777   4.10563638
 C  -7.57599175   3.88519154   2.16731941
 H  -6.63331848   3.94213262   1.64316604
 C  -9.97604193   3.88755797   2.20298416
 H  -10.92564598   3.99370191   1.69467614
 C  -8.77988987   4.02803084   1.49914576
 H  -8.79605144   4.24887390   0.43813546
 N  -7.66487920   0.55170957   3.89143623
 H  -8.10301122   1.27090571   3.32736292
 C  -6.50756023  -0.08266193   3.28266912
 H  -6.20575520  -0.88236911   3.95377749
 C  -5.31605152   0.90041672   3.14199341
 C  -6.86349970  -0.61925513   1.90090800
 H  -6.01314198  -1.16396996   1.49245807
 H  -7.05863078   0.22701152   1.23494708
 H  -7.73594467  -1.26889416   1.94398599
 O  -5.42049846   1.97730843   2.53195302
 N  -4.13824594   0.44026175   3.67345517
 H  -4.10977178  -0.52658869   3.93997501
 C  -2.86804490   1.04921774   3.29002438
 H  -3.08437761   2.10847876   3.14229338
 C  -2.40519778   0.41941737   1.97725700
 C  -1.83793059   0.84205106   4.38176955
 H  -0.87981113   1.30605261   4.12353568
 H  -1.66295936  -0.22663238   4.53000166
 H  -2.20001461   1.27594979   5.31557123
 O  -1.96001730  -0.73167539   1.94704855
 N  -2.57545085   1.16283914   0.86797901
 H  -2.84464575   2.12495920   0.96369994
 C  -2.06918571   0.71854070  -0.42597047
 H  -2.27261182  -0.35449869  -0.46942679
 C  -0.55712581   0.95220647  -0.47958173
 C  -2.76145107   1.44707419  -1.57877407
 H  -2.56407030   2.51244781  -1.46353029
 H  -2.29539357   1.14237417  -2.51882201
 O  -0.05446821   1.88746279  -1.11065243
 C  -4.23636659   1.19283860  -1.64494999
 C  -4.76632213   0.18609550  -2.45069184
 H  -4.11347532  -0.41472410  -3.06902601
 C  -5.12325517   1.95524210  -0.88099663
 H  -4.74551381   2.74937880  -0.24702069
 C  -6.13740621  -0.07369746  -2.47412514
 H  -6.54281256  -0.86398364  -3.09252844
 C  -6.49626916   1.71616598  -0.90890919
 H  -7.15322362   2.28958397  -0.26165507
 O  -8.34189711   0.38958524  -1.73731896
 H  -8.80344364   1.03402024  -1.19395612
 C  -7.00487091   0.69002711  -1.70169056
 N   0.19761671   0.07960704   0.21408657
 H  -0.25567660  -0.62145668   0.78381059
 C   1.64561836   0.18844768   0.25887813
 H   1.87890399   1.25664667   0.19602590
 C   2.22059636  -0.49382146  -0.98706020
 C   2.21362859  -0.38892546   1.54250092
 H   2.06139429  -1.46839100   1.55636367
 H   3.29484011  -0.23374470   1.52691100
 O   2.93701788  -1.49893049  -0.93967853
 C   1.63225772   0.22488188   2.81563753
 H   0.58317624  -0.08714757   2.88491395
 C   2.37476169  -0.32419023   4.02917249
 H   3.41410052   0.01273650   4.02187489
 H   1.91179021   0.02459778   4.95553222
 H   2.37010103  -1.41626776   4.04254706
 C   1.69221628   1.74710468   2.79409972
 H   2.70375260   2.08050934   2.54296014
 H   1.00020492   2.18107370   2.06758466
 H   1.44058146   2.15619396   3.77690598
 N   1.86499160   0.07651823  -2.15624682
 H   1.29557325   0.91518290  -2.12078965
 C   2.03474049  -0.58958108  -3.43495797
 H   1.99210299  -1.66953056  -3.25030817
 C   3.42010555  -0.24930592  -3.98993849
 C   0.93229568  -0.17043014  -4.40681170
 H   0.93706239   0.91554471  -4.49517159
 H   1.16754298  -0.56849013  -5.39421509
 O   3.60400290   0.40771541  -5.00404892
 C  -0.44134469  -0.65560394  -3.95427616
 H  -0.67230199  -0.25408189  -2.96633868
 H  -0.47911432  -1.74217083  -3.91650429
 C  -1.50635045  -0.14021839  -4.95772202
 O  -1.99517501  -0.96520252  -5.74789966
 O  -1.74003447   1.07841287  -4.87022558
 N   4.45976483  -0.70746402  -3.24574410
 H   4.26854109  -1.16861276  -2.36442932
 C   5.79946941  -0.28517028  -3.57994660
 H   5.81842242   0.80925551  -3.67500485
 C   6.18908306  -0.86397481  -4.93106523
 C   6.80395948  -0.71505643  -2.50840375
 H   7.80086529  -0.42873922  -2.85010337
 H   6.79137577  -1.80036886  -2.43221672
 O   5.77295764  -1.87987670  -5.41855509
 C   6.51738203  -0.07411597  -1.15871337
 H   5.55080715  -0.41124844  -0.77427288
 H   6.43784498   1.01009302  -1.29099658
 C   7.59310545  -0.33826258  -0.11368593
 H   7.35971174   0.21839667   0.79587029
 H   8.55889563   0.02777159  -0.46605363
 N   7.69474913  -1.76002189   0.27429234
 H   6.83256133  -2.16289612   0.61369140
 N   9.59843577  -2.27904753  -1.00795750
 H   10.36005093  -2.92744256  -1.13408074
 H   9.87842886  -1.30941901  -1.00161973
 N   8.37035957  -3.96552757   0.05014162
 H   9.14999032  -4.58720793  -0.10572418
 H   7.82378845  -4.19299508   0.87043983
 C   8.57072731  -2.64786120  -0.20970272
 O   7.13761096  -0.09673021  -5.52133786
 H   7.34707488  -0.53970917  -6.35234255
