21
conf-304
 N  -9.30593312   1.53880961   8.05640839
 H  -9.05973981   2.51574839   8.22126266
 H  -9.84604507   1.16805192   8.83870560
 H  -9.84795138   1.49206848   7.18637274
 C  -8.11216718   0.71131369   7.81457194
 H  -7.26788784   1.10492236   8.38699874
 C  -7.81696809   0.77442312   6.31415545
 C  -8.35408947  -0.73915877   8.24175836
 H  -7.46076071  -1.32614307   8.01761662
 H  -9.17031370  -1.15215528   7.64397575
 O  -8.69145219   1.06994640   5.51319072
 C  -8.68873811  -0.84502859   9.70828762
 C  -7.72262782  -0.56513285   10.67273662
 H  -6.72392672  -0.29727787   10.34759009
 C  -9.97684235  -1.16178505   10.12748791
 H  -10.74501517  -1.36253484   9.38678370
 C  -8.02726763  -0.63009638   12.02855001
 H  -7.25585073  -0.41875438   12.76035057
 C  -10.29501940  -1.21329714   11.48176301
 H  -11.30599628  -1.45817892   11.78569085
 C  -9.31803358  -0.95152139   12.43753276
 H  -9.56132339  -0.99674582   13.49295053
 N  -6.56647516   0.43712182   5.93596731
 H  -5.85249793   0.14016086   6.58326010
 C  -6.18863933   0.38189774   4.54173605
 H  -6.97184559  -0.14497955   3.98891991
 C  -4.87730798  -0.41575277   4.50091709
 C  -6.02207402   1.77527245   3.93724162
 H  -5.75774186   1.70424988   2.88143983
 H  -5.23753250   2.32744315   4.46086048
 H  -6.95915974   2.32184817   4.03435536
 O  -4.22882960  -0.63335441   5.50807205
 N  -4.45859267  -0.79606446   3.26528933
 H  -5.09608682  -0.76635580   2.49026176
 C  -3.29416848  -1.65831295   3.12323966
 H  -2.52198498  -1.24673932   3.78134426
 C  -2.75420645  -1.59224433   1.69028692
 C  -3.57882710  -3.09650712   3.55168762
 H  -2.67458298  -3.69422762   3.44535764
 H  -4.36909895  -3.53604724   2.93855746
 H  -3.89654469  -3.09655854   4.59363235
 O  -2.04562478  -2.48205946   1.23114639
 N  -3.07779743  -0.48651249   0.98553089
 H  -3.46526890   0.29934689   1.47718068
 C  -2.53841477  -0.27558934  -0.34675177
 H  -2.46102778  -1.26421439  -0.79973929
 C  -1.13815147   0.34203208  -0.24104415
 C  -3.48249056   0.58611770  -1.18513824
 H  -4.46059632   0.10135962  -1.15810635
 H  -3.57919150   1.56782991  -0.71768215
 O  -0.89860926   1.51891171  -0.46844919
 C  -2.99978082   0.73742214  -2.60282200
 C  -2.61253274   1.98626675  -3.08180606
 H  -2.69947155   2.85414823  -2.43786703
 C  -2.85196248  -0.37034210  -3.43615343
 H  -3.15971320  -1.34628904  -3.08130807
 C  -2.07144919   2.13706012  -4.35845599
 H  -1.73306687   3.09791120  -4.72722885
 C  -2.29795701  -0.23878613  -4.70816477
 H  -2.14962719  -1.11131967  -5.33825221
 O  -1.27149355   1.17151085  -6.36072331
 H  -0.74148414   0.35306938  -6.54786814
 C  -1.88576752   1.01786440  -5.15976151
 N  -0.17761683  -0.52206679   0.18348203
 H  -0.42195501  -1.49090895   0.34852446
 C   1.21761380  -0.16275779   0.07217698
 H   1.25373597   0.92855029   0.08699441
 C   1.76432649  -0.68331061  -1.25444562
 C   2.03179863  -0.75364865   1.21768977
 H   1.64793899  -0.35939074   2.16072123
 H   1.86485622  -1.83445806   1.22203596
 O   1.97263316  -1.87344816  -1.43453807
 C   3.53556748  -0.48395396   1.11318758
 H   3.83337745  -0.79498210   0.10336096
 C   3.87764289   0.98798534   1.29928816
 H   3.61080755   1.30781710   2.31007947
 H   4.95380815   1.14342443   1.17349683
 H   3.36335184   1.63849161   0.58666513
 C   4.29904909  -1.33308199   2.12003295
 H   3.96931008  -1.10974644   3.13744865
 H   4.14516042  -2.39870234   1.93343151
 H   5.37228598  -1.13554097   2.06704224
 N   1.98936363   0.26140137  -2.21199080
 H   1.99625877   1.21989467  -1.90820082
 C   2.87021968  -0.06913289  -3.32329297
 H   2.62845613  -1.08633489  -3.62530139
 C   4.33477363  -0.00776529  -2.87077490
 C   2.69467299   0.88646089  -4.50614326
 H   2.76529597   1.90717466  -4.13272377
 H   3.51040535   0.73549323  -5.21634206
 O   4.77274514   0.95649342  -2.24474831
 C   1.37482327   0.68357879  -5.23719046
 H   1.19393798   1.52194718  -5.91415300
 H   0.54160238   0.66097334  -4.53246998
 C   1.34080987  -0.60712879  -6.07949381
 O   0.27460437  -0.85020725  -6.66595695
 O   2.34614643  -1.31506717  -6.12222838
 N   5.09868501  -1.06559579  -3.24940908
 H   4.71990482  -1.70860024  -3.93083996
 C   6.54379167  -0.99931583  -3.15994565
 H   6.81476673   0.02773406  -2.91036677
 C   7.12200668  -1.32214255  -4.51828918
 C   7.12038350  -1.95401425  -2.11032521
 H   8.20723497  -1.94262155  -2.20387858
 H   6.79275283  -2.97013836  -2.34236660
 O   6.52601238  -1.84541865  -5.42435791
 C   6.73862135  -1.61277044  -0.67468332
 H   7.11203179  -2.39741026  -0.01189923
 H   5.64908319  -1.62302557  -0.56335764
 C   7.26495620  -0.27374622  -0.19050717
 H   6.94108459  -0.09371288   0.83432585
 H   6.85272895   0.52955231  -0.80133731
 N   8.74041028  -0.25464457  -0.27263042
 H   9.18690773  -1.13688977  -0.06824887
 N   8.86879737   2.02840960   0.19627360
 H   9.38767249   2.74036771   0.68799140
 H   7.88343464   2.00757347   0.41075916
 N   10.81692746   0.70969164   0.13075582
 H   11.33905133   1.56652232   0.00655107
 H   11.22348189  -0.07846650  -0.35974458
 C   9.46768362   0.82863776   0.02946287
 O   8.42433201  -0.98172225  -4.59621683
 H   8.71617967  -1.24551119  -5.47843909
