21
conf-797
 N  -9.70892202   3.62718654   5.83030990
 H  -10.65323352   3.24184661   5.87657670
 H  -9.73563038   4.64722082   5.81729375
 H  -9.19020625   3.28761223   6.64872862
 C  -8.96943203   3.11411220   4.66441917
 H  -9.65513160   2.96048005   3.82753462
 C  -8.32419665   1.79676015   5.08171572
 C  -7.88303280   4.10399817   4.23025270
 H  -7.32577256   3.66903727   3.39858473
 H  -7.18034615   4.23668540   5.05726377
 O  -8.09283318   1.55926178   6.25674169
 C  -8.46478564   5.43450281   3.82925883
 C  -8.30493972   6.55696148   4.63556697
 H  -7.72819946   6.47761722   5.55204150
 C  -9.23027745   5.54860669   2.67021722
 H  -9.37474555   4.67004060   2.05172104
 C  -8.88422468   7.77436785   4.28869701
 H  -8.75050490   8.63451171   4.93419706
 C  -9.79870251   6.76529069   2.30697292
 H  -10.38076719   6.83182140   1.39475678
 C  -9.63010697   7.88291171   3.11893295
 H  -10.07735293   8.83106689   2.84305072
 N  -8.01129357   0.93223725   4.07308730
 H  -7.97370111   1.31252329   3.14132835
 C  -7.04569982  -0.12571441   4.31682907
 H  -7.08702487  -0.34422677   5.38222953
 C  -5.65054411   0.38807255   3.96290393
 C  -7.37119193  -1.36929868   3.49764721
 H  -6.62978226  -2.15084690   3.68588970
 H  -7.34838282  -1.13171583   2.43100009
 H  -8.36177755  -1.74615613   3.75278382
 O  -5.45954129   1.18765146   3.05879754
 N  -4.63624312  -0.13228709   4.71201306
 H  -4.85131282  -0.97565331   5.21322792
 C  -3.26610637  -0.04820228   4.22855688
 H  -3.09893774   0.98595111   3.92145151
 C  -3.09111652  -0.96412701   3.00850198
 C  -2.30496663  -0.42979239   5.34447431
 H  -1.26685913  -0.35792991   5.01243566
 H  -2.49382309  -1.45753913   5.66461096
 H  -2.44672050   0.23526492   6.19742429
 O  -3.81895273  -1.92072115   2.79417120
 N  -2.05346634  -0.64231920   2.20099352
 H  -1.43460830   0.12738219   2.39827597
 C  -1.71012108  -1.44599158   1.04943560
 H  -1.69564195  -2.49558820   1.35556039
 C  -0.29529013  -1.01860555   0.65628041
 C  -2.73335622  -1.34270445  -0.09703016
 H  -2.38150532  -1.96656883  -0.92324474
 H  -3.65613205  -1.78221608   0.28168148
 O   0.17823199   0.05506845   1.02059967
 C  -3.00980239   0.05045795  -0.59461957
 C  -3.78189395   0.94580565   0.15461233
 H  -4.21171992   0.64383802   1.10258371
 C  -2.53950745   0.48823497  -1.83445432
 H  -1.94924894  -0.17606211  -2.46161371
 C  -4.01783225   2.25563775  -0.27353778
 H  -4.58371681   2.93773899   0.34774462
 C  -2.78656800   1.78343716  -2.27915003
 H  -2.44107217   2.09306718  -3.25798697
 O  -3.68641521   3.97270708  -1.90604744
 H  -2.79514748   4.28046886  -2.21095903
 C  -3.48792236   2.69267512  -1.48259616
 N   0.39378051  -1.88539484  -0.12100776
 H  -0.00790582  -2.78539325  -0.32023104
 C   1.82638391  -1.70326905  -0.36276958
 H   2.20231092  -1.16604057   0.51228259
 C   2.01502622  -0.80875199  -1.58571410
 C   2.53652475  -3.04166517  -0.47206312
 H   2.29024130  -3.61452876   0.42590320
 H   2.13716273  -3.58530552  -1.33063974
 O   2.40126239  -1.22931860  -2.68422672
 C   4.06068553  -2.96195284  -0.59182826
 H   4.28753734  -2.47353118  -1.55091740
 C   4.68704095  -2.15005414   0.53364002
 H   4.44931152  -2.59311210   1.50522532
 H   5.77658504  -2.13877061   0.43471626
 H   4.35230158  -1.10880250   0.53749150
 C   4.66826732  -4.36024558  -0.62029695
 H   4.46816156  -4.88242404   0.31761167
 H   4.26178047  -4.95968903  -1.43768200
 H   5.75360111  -4.30345933  -0.74760075
 N   1.72049571   0.49338113  -1.39160522
 H   1.32877441   0.78500409  -0.50198074
 C   1.84378755   1.46390340  -2.46692880
 H   1.61847221   0.92079400  -3.39147544
 C   3.28264927   1.98038195  -2.53782293
 C   0.83561709   2.58052937  -2.27114923
 H  -0.11343318   2.08264195  -2.03083755
 H   1.10022173   3.18828619  -1.40764877
 O   3.60179108   3.12448895  -2.25117924
 C   0.62560354   3.46498886  -3.49264415
 H   0.54938766   2.88425097  -4.41500972
 H   1.43950969   4.18045150  -3.62733179
 C  -0.69625545   4.25158769  -3.34564440
 O  -1.16796362   4.30010471  -2.20081228
 O  -1.15158424   4.76753137  -4.35999260
 N   4.19972248   1.05379220  -2.91805414
 H   3.88812993   0.13417706  -3.19946144
 C   5.57122975   1.44602668  -3.15723111
 H   5.91749014   2.04168773  -2.30636536
 C   5.71386398   2.34061679  -4.37856625
 C   6.46407945   0.21386652  -3.31988135
 H   7.45944577   0.54010387  -3.61816547
 H   6.07048055  -0.39518745  -4.13395490
 O   6.55090970   3.19990754  -4.48950598
 C   6.53631660  -0.58711812  -2.03233841
 H   5.52567077  -0.74840899  -1.65192480
 H   7.04750585   0.00882291  -1.26888170
 C   7.23394179  -1.93157513  -2.17071143
 H   6.75932500  -2.51426438  -2.96660827
 H   7.11391000  -2.50724627  -1.25945944
 N   8.68301657  -1.81035953  -2.41819450
 H   9.16836694  -1.24522460  -1.73534051
 N   8.60226464  -2.18946079  -4.74003047
 H   9.13733641  -2.43611344  -5.55807961
 H   7.74844285  -2.71656824  -4.63035399
 N   10.55813103  -1.41073437  -3.72034245
 H   11.05774751  -1.66007347  -4.56121429
 H   11.12177013  -1.45685243  -2.88143512
 C   9.27151501  -1.83108009  -3.62112282
 O   4.83576771   2.03618924  -5.35827490
 H   5.02686065   2.63871972  -6.08678441
