21
conf-365
 N  -9.95477347   5.05315857   4.32959437
 H  -10.23017141   5.71948729   3.60650179
 H  -10.58420890   5.11393502   5.13068120
 H  -9.98708848   4.11203039   3.92381913
 C  -8.56004992   5.26111748   4.75745234
 H  -8.33145146   6.32935693   4.75600256
 C  -7.66666709   4.52446375   3.76710842
 C  -8.34263397   4.71708060   6.17151965
 H  -7.29383109   4.84584135   6.44537392
 H  -8.54413435   3.64267372   6.16864473
 O  -8.09204058   3.54688538   3.15246786
 C  -9.22944043   5.40463866   7.17929277
 C  -9.01925537   6.74286881   7.50606087
 H  -8.19125595   7.26798209   7.04387467
 C  -10.30883653   4.74005906   7.75263777
 H  -10.49747874   3.70367728   7.48973044
 C  -9.85045864   7.39629080   8.41006807
 H  -9.66016770   8.43459196   8.65719533
 C  -11.15607173   5.39074037   8.64524585
 H  -11.99366964   4.85499621   9.07621100
 C  -10.92563918   6.72147994   8.98053521
 H  -11.57991935   7.22896271   9.68021223
 N  -6.39983026   4.96810513   3.64556917
 H  -6.10502778   5.77999096   4.15788699
 C  -5.46234843   4.39739411   2.68688452
 H  -6.06765785   4.05668063   1.83836160
 C  -4.77683857   3.17595726   3.30582833
 C  -4.46412827   5.44667652   2.24471711
 H  -3.73533620   5.02022161   1.55072488
 H  -3.92146389   5.84067538   3.10550228
 H  -4.98848612   6.26313083   1.74325846
 O  -3.56716330   3.14333613   3.55335917
 N  -5.58726816   2.13507481   3.58766726
 H  -6.55782898   2.16955203   3.30184869
 C  -5.03236898   0.86272933   4.01579830
 H  -4.16036187   1.10550521   4.63095741
 C  -4.56981763   0.08646956   2.77229339
 C  -6.06498736   0.08438246   4.80870223
 H  -5.64218993  -0.85926927   5.15887265
 H  -6.93375099  -0.14097706   4.18740347
 H  -6.38150830   0.67532409   5.66982398
 O  -5.22569098  -0.81617266   2.27343688
 N  -3.40306953   0.50746125   2.22740805
 H  -2.84036898   1.22799833   2.66377692
 C  -2.89783234  -0.09833881   1.01569708
 H  -3.10309037  -1.17190786   1.07195111
 C  -1.38236915   0.13634180   0.98127451
 C  -3.60987456   0.44774257  -0.24888443
 H  -3.61240967  -0.34501438  -0.99994270
 H  -4.65170364   0.62540106   0.02483063
 O  -0.79665244   0.73022862   1.86952157
 C  -2.96689346   1.67075840  -0.83374946
 C  -2.75956593   2.82406291  -0.07590483
 H  -3.14826682   2.87240954   0.92866841
 C  -2.45036333   1.64672737  -2.13070375
 H  -2.60102970   0.76345604  -2.74340059
 C  -2.00184391   3.88332084  -0.56509865
 H  -1.80482097   4.76432258   0.02891105
 C  -1.69963633   2.70240099  -2.64274406
 H  -1.36439259   2.66568058  -3.66858544
 O  -0.67010850   4.85091709  -2.23541819
 H  -0.12251502   4.53865860  -3.00534297
 C  -1.42522028   3.81779739  -1.83470285
 N  -0.73403888  -0.33239485  -0.10793210
 H  -1.21084412  -0.67894633  -0.92482926
 C   0.66230287  -0.02179292  -0.30333739
 H   0.81984846   1.03567732  -0.06293679
 C   0.96270730  -0.25752133  -1.78699412
 C   1.54319741  -0.88780037   0.61123453
 H   1.02880399  -0.95138976   1.57408192
 H   1.56221642  -1.90365824   0.20572906
 O   0.17131605  -0.82864819  -2.51769461
 C   2.96837736  -0.39631504   0.88085714
 H   3.56057979  -0.45781475  -0.03349407
 C   2.97074893   1.04643039   1.38475593
 H   2.20895210   1.17010599   2.16256911
 H   3.94099020   1.31099778   1.81073257
 H   2.75869689   1.76206193   0.58338374
 C   3.62427760  -1.32542224   1.90326234
 H   3.08628291  -1.28325140   2.85275909
 H   3.61927096  -2.35939877   1.55175568
 H   4.66153851  -1.03680387   2.08413342
 N   2.19492803   0.14200286  -2.17848029
 H   2.70871220   0.80559615  -1.62916489
 C   2.76431558  -0.19645572  -3.46305879
 H   2.05125118  -0.86072529  -3.95226421
 C   4.08230869  -0.92675045  -3.21447225
 C   3.00776635   1.04561855  -4.31620050
 H   3.71490228   1.70103984  -3.80946451
 H   3.47251299   0.73483037  -5.25424697
 O   4.90835554  -0.49944229  -2.41990090
 C   1.70952235   1.79350027  -4.62228802
 H   0.84766289   1.11700025  -4.56886276
 H   1.71583162   2.21775300  -5.62670225
 C   1.42523495   2.95806839  -3.63823561
 O   0.60337993   3.77462700  -4.09500518
 O   1.98057598   2.98502388  -2.53787524
 N   4.26589671  -2.06147710  -3.93210982
 H   3.59376895  -2.31448825  -4.63611526
 C   5.52642960  -2.78932420  -3.89955025
 H   6.00349171  -2.56326495  -2.94586886
 C   6.40290437  -2.27997440  -5.02888638
 C   5.26966256  -4.28242818  -4.04503639
 H   4.78729368  -4.46085512  -5.00863741
 H   4.56272336  -4.56771619  -3.26408546
 O   6.33934757  -2.66556270  -6.17107793
 C   6.52811341  -5.12984772  -3.92573037
 H   7.04873591  -4.88199545  -2.99819152
 H   7.20484970  -4.90338332  -4.75112338
 C   6.21001891  -6.61422487  -3.94041686
 H   5.70711946  -6.86472625  -4.87895911
 H   5.52294868  -6.86060451  -3.12173833
 N   7.45828308  -7.39200791  -3.83143640
 H   8.16864243  -6.96975324  -3.25209235
 N   6.33142644  -9.43096506  -4.04751894
 H   6.39686148  -10.39789389  -4.32045268
 H   5.52554347  -8.93027312  -4.38099370
 N   8.61738919  -9.37130364  -3.51582403
 H   8.66729104  -10.35730166  -3.71966501
 H   9.47383342  -8.86451955  -3.69237913
 C   7.46013135  -8.73517395  -3.81799703
 O   7.24750140  -1.31142433  -4.62438637
 H   7.72889771  -1.02974367  -5.41310924
