21
conf-608
 N  -11.62994617   2.88602630   5.56082687
 H  -11.65222772   1.86880043   5.63238975
 H  -12.57818061   3.23399387   5.43605316
 H  -11.26899276   3.23231163   6.44825994
 C  -10.74626360   3.30729146   4.45774340
 H  -11.09205867   2.84787500   3.52351977
 C  -9.34212425   2.77419090   4.74536268
 C  -10.75868787   4.83119731   4.26426855
 H  -11.79569425   5.12761018   4.07955077
 H  -10.19373136   5.06764962   3.35825145
 O  -9.08267869   2.17515919   5.77669662
 C  -10.20617970   5.59722651   5.43725991
 C  -11.02955398   5.96179325   6.50050868
 H  -12.08658052   5.71473163   6.46378749
 C  -8.85499115   5.94785514   5.49604630
 H  -8.20105731   5.69289849   4.66637066
 C  -10.51733397   6.62862414   7.61169019
 H  -11.17810477   6.89102223   8.42958633
 C  -8.33669844   6.61648754   6.60291542
 H  -7.28395984   6.87051080   6.62610122
 C  -9.16677220   6.95560334   7.66661798
 H  -8.76468056   7.47420349   8.52971750
 N  -8.41241509   3.01313582   3.79637873
 H  -8.61975201   3.47462152   2.92187011
 C  -7.04541396   2.56650374   3.94504301
 H  -6.70338184   2.81968041   4.95238533
 C  -6.23867665   3.32506182   2.89533795
 C  -6.89361196   1.05441940   3.74148788
 H  -5.83305587   0.78633693   3.74309286
 H  -7.31981709   0.77036211   2.77610381
 H  -7.41428547   0.51676170   4.53117881
 O  -6.76149109   3.78842861   1.89846104
 N  -4.89555304   3.41300294   3.14509858
 H  -4.54320850   2.78622479   3.84915534
 C  -3.97949307   3.59519207   2.03050923
 H  -4.50326554   4.20528225   1.29499669
 C  -3.65614473   2.22392635   1.41886912
 C  -2.69518105   4.28326673   2.48057481
 H  -2.00935989   4.38993084   1.63400091
 H  -2.19793298   3.68328146   3.24751192
 H  -2.91690844   5.26788524   2.89180985
 O  -3.69578706   1.19229669   2.06709757
 N  -3.29175487   2.25240985   0.10661055
 H  -3.03586207   3.14631900  -0.27363304
 C  -2.55590819   1.13089993  -0.44149776
 H  -2.97412164   0.22676743  -0.00078431
 C  -1.08294632   1.22507739  -0.02516091
 C  -2.72483998   1.06725306  -1.97284030
 H  -1.98785757   0.36090295  -2.36646934
 H  -3.72088256   0.66756207  -2.17955473
 O  -0.54853072   2.26079031   0.32837306
 C  -2.56629736   2.40949944  -2.62869108
 C  -3.66958779   3.21009613  -2.91969621
 H  -4.66220756   2.84944857  -2.67770846
 C  -1.29841819   2.90825639  -2.92953428
 H  -0.43724233   2.27901755  -2.72403901
 C  -3.51554474   4.48030078  -3.46530290
 H  -4.37262248   5.10511918  -3.67805077
 C  -1.12308437   4.17773839  -3.47755065
 H  -0.12669626   4.54022807  -3.69692736
 O  -2.14710452   6.21438854  -4.28374337
 H  -1.22110548   6.42532780  -4.42646456
 C  -2.24007116   4.96269915  -3.74535162
 N  -0.41071596   0.03540169  -0.06470224
 H  -0.82940191  -0.69466089  -0.61158109
 C   1.03771480   0.04279589  -0.02821698
 H   1.33724578   0.72931310   0.76650770
 C   1.59258722   0.57994783  -1.34507382
 C   1.59200809  -1.35217471   0.24927699
 H   1.29364347  -2.00906917  -0.57284132
 H   2.68031622  -1.29723858   0.21308453
 O   0.97839545   0.52099112  -2.39861291
 C   1.17334564  -1.97123233   1.58373101
 H   0.08344385  -2.05403970   1.59735181
 C   1.75972728  -3.37514794   1.69214082
 H   2.85145795  -3.32969016   1.66530385
 H   1.46466605  -3.85749787   2.62718703
 H   1.42594704  -4.00929792   0.86756933
 C   1.60322475  -1.11577948   2.76925460
 H   2.69315640  -1.01655402   2.79149545
 H   1.16972248  -0.11287601   2.73251460
 H   1.29314283  -1.57768145   3.71004978
 N   2.84236562   1.12933191  -1.26024984
 H   3.37625281   0.86265710  -0.45138145
 C   3.62151052   1.26935015  -2.47872393
 H   2.98269934   1.77407060  -3.20784326
 C   3.98382815  -0.11659866  -3.03354273
 C   4.87503139   2.10851900  -2.24932348
 H   5.45993490   1.68231072  -1.43350844
 H   5.49699322   2.06576389  -3.14671953
 O   3.95822208  -1.13902571  -2.36282175
 C   4.57401383   3.57540458  -1.94734087
 H   4.04409583   3.68544818  -1.00040172
 H   3.99097707   4.02381367  -2.75313034
 C   5.95666405   4.25145234  -1.86270399
 O   6.49977300   4.22605240  -0.74405826
 O   6.39266797   4.72241730  -2.92880048
 N   4.32739907  -0.09859151  -4.34995680
 H   4.42636916   0.78887302  -4.80912125
 C   4.84447417  -1.28048620  -4.99095041
 H   4.97299285  -2.02948751  -4.20325802
 C   6.22892780  -1.06735556  -5.56909280
 C   3.89720189  -1.85525427  -6.04824238
 H   4.42507587  -2.65647038  -6.56364467
 H   3.67623281  -1.08586483  -6.79250591
 O   6.77489095  -1.84165480  -6.31094965
 C   2.61449692  -2.37445795  -5.41979392
 H   2.13779825  -1.59461972  -4.82098652
 H   2.86458934  -3.18361519  -4.73300740
 C   1.60101261  -2.88284916  -6.43449006
 H   1.28271573  -2.06339439  -7.08278940
 H   0.69857818  -3.23899615  -5.92870662
 N   2.09753958  -3.93974655  -7.33768427
 H   2.63114521  -3.60226383  -8.12592174
 N   2.16447181  -5.54178491  -5.64411934
 H   2.19944406  -6.52066159  -5.40926164
 H   1.48582055  -4.99851008  -5.13643616
 N   3.16502315  -5.96753318  -7.72327277
 H   3.21422991  -6.94595035  -7.48055853
 H   3.11152903  -5.78101124  -8.71584148
 C   2.45631321  -5.15466894  -6.90107350
 O   6.82093051   0.06270515  -5.12731787
 H   7.70279263   0.07976727  -5.52218872
