21
conf-890
 N  -10.14223432   1.34812071   5.88040600
 H  -10.64229291   1.71293646   5.06870537
 H  -10.51114546   1.75332413   6.74110628
 H  -10.24940621   0.32749086   5.88503713
 C  -8.69196778   1.58302786   5.77617892
 H  -8.50604460   2.51103220   5.22874194
 C  -8.09917127   0.38509333   5.02842130
 C  -8.05261301   1.70097443   7.16293721
 H  -6.97907491   1.86101757   7.04178936
 H  -8.18125911   0.75389788   7.69294481
 O  -8.68958310  -0.68470142   4.98835131
 C  -8.65650209   2.82268078   7.97018200
 C  -8.44876212   4.14909438   7.59845100
 H  -7.82567322   4.35692581   6.73696952
 C  -9.47947439   2.55685989   9.05991825
 H  -9.66682943   1.52700788   9.34866740
 C  -9.02558836   5.19107035   8.31723097
 H  -8.84000012   6.21555172   8.01525295
 C  -10.07447577   3.59230108   9.77498670
 H  -10.71574064   3.36213744   10.61772079
 C  -9.84481394   4.91477382   9.40759047
 H  -10.30187696   5.72347991   9.96640014
 N  -6.88104464   0.56262171   4.47546953
 H  -6.37075357   1.42957879   4.53083358
 C  -6.19232059  -0.52869858   3.82071243
 H  -6.27728290  -1.42208058   4.44437466
 C  -4.72780237  -0.10219193   3.72042572
 C  -6.78776094  -0.84686468   2.44827259
 H  -6.23112643  -1.65481869   1.97033169
 H  -6.74870290   0.03379630   1.80231113
 H  -7.82820669  -1.14319022   2.56901668
 O  -4.38387661   1.06883811   3.84630529
 N  -3.85448750  -1.10628997   3.46988143
 H  -4.21531782  -2.01682149   3.24823686
 C  -2.46387795  -0.82235258   3.14182387
 H  -2.23016834   0.10215981   3.67512605
 C  -2.35963819  -0.57266635   1.63643209
 C  -1.54883575  -1.94604890   3.58025970
 H  -0.50418153  -1.68569690   3.37685385
 H  -1.77870988  -2.86320393   3.03698064
 H  -1.66220334  -2.12013844   4.65206522
 O  -2.10565490  -1.47194153   0.83230694
 N  -2.60904154   0.68961717   1.24623247
 H  -2.73367852   1.39871937   1.95267264
 C  -2.42603863   1.09944075  -0.13477370
 H  -2.67277883   0.22073160  -0.73669348
 C  -0.93992547   1.41438185  -0.37469507
 C  -3.38589315   2.23571902  -0.50367799
 H  -3.03638098   2.67976074  -1.43715266
 H  -4.35648784   1.76926698  -0.69758166
 O  -0.51118829   2.52940589  -0.63525648
 C  -3.56413990   3.29334909   0.55198097
 C  -4.59498550   3.18303224   1.48918894
 H  -5.24248465   2.31368851   1.46493972
 C  -2.73011188   4.41029426   0.62978407
 H  -1.92618964   4.51537634  -0.08199924
 C  -4.76840506   4.12938890   2.49275131
 H  -5.55164238   4.02073074   3.22941891
 C  -2.90591501   5.37732827   1.61844556
 H  -2.24400282   6.23615858   1.65378619
 O  -4.15179841   6.14066495   3.54890295
 H  -3.50840088   6.85081864   3.48138524
 C  -3.92749472   5.23556756   2.55167057
 N  -0.12405838   0.33823973  -0.22338658
 H  -0.51589811  -0.59316782  -0.14690653
 C   1.30684789   0.44951256  -0.32375740
 H   1.53840368   1.51029494  -0.42489056
 C   1.79215718  -0.29833020  -1.56005838
 C   1.99238232  -0.14354595   0.91232030
 H   1.85710794  -1.22936938   0.88023602
 H   3.06637075   0.04123515   0.84387630
 O   1.32225719  -1.36752313  -1.89745267
 C   1.45870773   0.38883695   2.24394952
 H   0.39204010   0.14139319   2.29453272
 C   2.15617110  -0.31386555   3.39915368
 H   3.22598840  -0.09358933   3.39188492
 H   1.75041122   0.00983814   4.36137854
 H   2.03351909  -1.39835545   3.32842296
 C   1.61200483   1.90088796   2.33727504
 H   2.67197122   2.17292379   2.31489094
 H   1.11407276   2.41566334   1.51526844
 H   1.18934541   2.27496334   3.27306491
 N   2.82518737   0.30592744  -2.23053541
 H   3.33140224   1.00213933  -1.70931903
 C   3.67718364  -0.50536098  -3.09178472
 H   3.02186135  -1.19255537  -3.62223157
 C   4.65721023  -1.30448632  -2.21731085
 C   4.42200050   0.40779261  -4.07448408
 H   3.66343448   0.98876629  -4.60576516
 H   5.03120706   1.10811255  -3.49261711
 O   4.97868014  -0.94946532  -1.09517486
 C   5.29470713  -0.31037687  -5.10651445
 H   6.07838116  -0.88783182  -4.62333355
 H   5.74805817   0.41550216  -5.78175845
 C   4.36354900  -1.22679510  -5.93887275
 O   4.17465487  -2.37871516  -5.49153017
 O   3.87260779  -0.70415319  -6.94770343
 N   5.12834277  -2.42997526  -2.80489606
 H   4.85164278  -2.61455224  -3.76963585
 C   6.11068291  -3.24679294  -2.13300445
 H   6.07853415  -2.94612608  -1.08023288
 C   7.52938518  -2.93852257  -2.58205328
 C   5.79754817  -4.73601043  -2.25051089
 H   6.65751975  -5.29971727  -1.89646308
 H   5.66707706  -4.99019011  -3.30493993
 O   8.41638950  -3.74703101  -2.67129708
 C   4.55420481  -5.11255114  -1.45871382
 H   3.70020201  -4.52331051  -1.80595950
 H   4.69992799  -4.85893501  -0.40464117
 C   4.21540060  -6.58482166  -1.57531399
 H   4.14197814  -6.85304360  -2.63161234
 H   3.24390023  -6.79490271  -1.11183762
 N   5.28239661  -7.39227030  -0.94358159
 H   5.64186952  -7.00031335  -0.08428906
 N   4.35786968  -9.40825668  -1.69301173
 H   4.53726830  -10.37492712  -1.91313803
 H   3.83519648  -8.89155970  -2.38058134
 N   6.11325271  -9.39639999  -0.13603530
 H   6.23747954  -10.38271836  -0.30550040
 H   6.95738697  -8.90846332   0.13134099
 C   5.25196336  -8.73417043  -0.94578308
 O   7.72489173  -1.62178444  -2.81615170
 H   8.65968344  -1.51674229  -3.03367574
