21
conf-477
 N  -10.51339443   5.59945169   5.75193555
 H  -11.31164936   5.13120214   5.32308785
 H  -10.81422132   6.49751819   6.12382341
 H  -10.20757296   5.00992576   6.52348020
 C  -9.42154947   5.75324436   4.77052584
 H  -9.80549880   6.28645688   3.89155744
 C  -9.00775158   4.35491811   4.30140728
 C  -8.25051988   6.57031302   5.33536784
 H  -8.65661827   7.53489994   5.65677995
 H  -7.55393940   6.77714236   4.51762686
 O  -9.66935524   3.36994166   4.58410507
 C  -7.53011924   5.90466476   6.47596685
 C  -7.98306444   6.03547616   7.78603552
 H  -8.85476190   6.64983518   7.99130773
 C  -6.38489184   5.13608719   6.24726221
 H  -6.00438047   5.04291797   5.23702290
 C  -7.34098264   5.38321604   8.83856217
 H  -7.72364632   5.49194865   9.84652698
 C  -5.73699093   4.48665840   7.29382288
 H  -4.85832836   3.88814833   7.07869949
 C  -6.21560452   4.60274255   8.59471666
 H  -5.71410300   4.09429830   9.41061142
 N  -7.90289627   4.28946998   3.52607911
 H  -7.26227449   5.06134394   3.43575140
 C  -7.33817709   3.01609515   3.14378344
 H  -7.54189165   2.28912815   3.93621332
 C  -5.82629704   3.24978846   3.03971665
 C  -7.93812127   2.50687906   1.83925123
 H  -7.50905141   1.54062135   1.56985177
 H  -7.74746221   3.21184152   1.02665714
 H  -9.01598778   2.39131881   1.95502037
 O  -5.35000628   4.37602422   3.07057778
 N  -5.06504681   2.14911796   2.90053079
 H  -5.44501128   1.21528781   2.88675730
 C  -3.62343647   2.24467205   2.83731517
 H  -3.36531870   3.04817329   2.14246542
 C  -3.13572792   0.89328234   2.30373209
 C  -3.01010743   2.55926852   4.20173847
 H  -1.92389560   2.63733265   4.13003185
 H  -3.26106789   1.77880748   4.92541947
 H  -3.41404155   3.50664375   4.55821058
 O  -3.82447729  -0.10873185   2.38076090
 N  -1.88530176   0.89266353   1.79038615
 H  -1.29299498   1.70811914   1.79926508
 C  -1.27802670  -0.30563172   1.25836194
 H  -1.37413006  -1.11536786   1.98884576
 C   0.19890408   0.02918929   1.07181634
 C  -1.96080205  -0.79617280  -0.03373539
 H  -1.41822088  -1.68101980  -0.38171797
 H  -2.96820487  -1.10080309   0.23907369
 O   0.63318172   1.16237304   1.21870887
 C  -2.00457964   0.24011918  -1.11553903
 C  -3.10433336   1.08735851  -1.27830075
 H  -3.96698827   0.97424845  -0.63407301
 C  -0.92389756   0.41212308  -1.98689055
 H  -0.05356882  -0.23862866  -1.91983647
 C  -3.11363610   2.08213506  -2.25453868
 H  -3.96844308   2.73435709  -2.37773359
 C  -0.90794177   1.41916539  -2.94560792
 H  -0.04673952   1.51645694  -3.58945156
 O  -2.06953439   3.24529067  -4.01091548
 H  -1.14504019   3.45574711  -4.29827658
 C  -2.00812808   2.27206295  -3.08515708
 N   1.00648572  -1.02373556   0.76895023
 H   0.58411711  -1.82564853   0.32915931
 C   2.40656842  -0.78450645   0.42731870
 H   2.78465856  -0.07807323   1.16317009
 C   2.46254497  -0.12414883  -0.95748713
 C   3.18843616  -2.08521226   0.48791006
 H   3.11685334  -2.45521175   1.51128303
 H   2.69760486  -2.81295682  -0.16417986
 O   2.25428755  -0.79732185  -2.00688602
 C   4.65978073  -1.97798676   0.08252235
 H   4.66276246  -1.81379272  -1.00954797
 C   5.36870646  -0.81070453   0.75146948
 H   5.24391691  -0.85768661   1.83767494
 H   6.44407832  -0.84763314   0.54715026
 H   5.00198289   0.15786092   0.40438438
 C   5.38442724  -3.28662114   0.37744951
 H   5.42040703  -3.45899872   1.45562546
 H   4.88003836  -4.13822881  -0.08794863
 H   6.41074424  -3.26178470   0.00670001
 N   2.68982409   1.21517530  -0.90659245
 H   2.54315832   1.66418247  -0.01440581
 C   2.72396923   2.06331361  -2.08868173
 H   2.02410272   1.61673939  -2.80123406
 C   4.14549281   2.00867490  -2.66877612
 C   2.33158158   3.48950043  -1.72641640
 H   1.39670369   3.46958630  -1.15732064
 H   3.10746184   3.89355010  -1.06916315
 O   5.01192054   2.81293197  -2.36306466
 C   2.15830232   4.41706062  -2.94050735
 H   2.85216934   4.15264069  -3.73829830
 H   2.34789315   5.44896726  -2.63427440
 C   0.69520538   4.37738633  -3.42032226
 O  -0.10153465   5.04669070  -2.76798172
 O   0.46180998   3.66219895  -4.41469770
 N   4.35551335   0.98382859  -3.53551654
 H   3.66249623   0.24524564  -3.55732624
 C   5.70142127   0.57233230  -3.87322536
 H   6.36085453   1.42356471  -3.69584924
 C   5.78790819   0.20698754  -5.34122882
 C   6.15832880  -0.61554967  -3.01143752
 H   5.52523284  -1.47677423  -3.22432896
 H   5.98228273  -0.35406016  -1.95857061
 O   6.72824316   0.42385165  -6.06241838
 C   7.62757364  -0.95650782  -3.19465622
 H   8.22190504  -0.09303092  -2.87912807
 H   7.86010844  -1.11554525  -4.24888607
 C   8.07359252  -2.17066567  -2.40512629
 H   7.82315103  -2.04950128  -1.34788058
 H   9.16230726  -2.28194966  -2.47557321
 N   7.38476868  -3.37252407  -2.93747300
 H   7.23021695  -3.33956346  -3.93721734
 N   8.42965520  -4.78597845  -1.39763005
 H   8.42921069  -5.66872016  -0.91632068
 H   8.68755675  -3.97750239  -0.85966091
 N   7.21271875  -5.67350251  -3.19931311
 H   7.22271846  -6.56853943  -2.73239949
 H   6.40212479  -5.52184912  -3.78619271
 C   7.67054155  -4.60839292  -2.49475151
 O   4.68262035  -0.44736634  -5.75956681
 H   4.82618052  -0.66608018  -6.68895747
