21
conf-950
 N  -3.70549632  -0.47752092   4.51526506
 H  -3.99845111  -1.36507950   4.12633934
 H  -2.74290582  -0.62134409   4.79433727
 C  -3.77209658   0.53759688   3.48398823
 H  -3.33889781   1.46773112   3.86044628
 H  -4.81826077   0.75841111   3.25472048
 C  -3.08188854   0.16974697   2.17538558
 O  -2.69071602  -0.96266310   1.91912658
 N  -2.99182809   1.19241356   1.27937124
 H  -3.09908716   2.13110525   1.62248380
 C  -2.22567082   1.01302626   0.05438122
 H  -2.42871519  -0.00991793  -0.27000411
 C  -0.73769104   1.17464180   0.34770610
 C  -2.66087380   1.99571360  -1.01950001
 H  -3.71787966   1.81951856  -1.22946990
 H  -2.56857614   3.00800447  -0.61912305
 O  -0.21068363   2.27510890   0.48102610
 C  -1.86173474   1.89966588  -2.32371325
 H  -0.80833654   2.10608255  -2.07347042
 C  -1.93746653   0.51665683  -2.95773705
 H  -2.97172605   0.27288938  -3.21640194
 H  -1.34531617   0.49709514  -3.87697299
 H  -1.54600723  -0.26383124  -2.30304885
 C  -2.33957695   2.96450800  -3.30208843
 H  -3.38654116   2.79824008  -3.56050205
 H  -2.25002038   3.96687345  -2.87584228
 H  -1.75469691   2.93357809  -4.22629776
 N  -0.04816370   0.01973028   0.48732598
 H  -0.51698650  -0.84684944   0.28610951
 C   1.40465939   0.03572140   0.48354074
 H   1.72141621   0.82083178   1.17474355
 C   1.87578421   0.40544430  -0.92693294
 C   1.98476563  -1.31361855   0.93128990
 H   1.61023493  -2.05682460   0.22418572
 O   1.40017948  -0.11895170  -1.93129224
 C   3.51365266  -1.31908728   0.88906677
 H   3.91252129  -0.56643798   1.58011149
 H   3.89059043  -2.29533015   1.20280759
 H   3.90547348  -1.11139685  -0.11067265
 C   1.51073956  -1.67400889   2.33760815
 H   1.89265733  -0.94219390   3.05386129
 H   1.89204506  -2.65709182   2.62271763
 H   0.42207267  -1.69295572   2.41146533
 N   2.85116506   1.34781487  -0.97298189
 H   3.28592039   1.64884710  -0.11573406
 C   3.48335807   1.68652415  -2.22699983
 H   3.13155881   0.95799044  -2.95689245
 C   4.96425974   1.47647455  -2.07995009
 C   3.13743530   3.09063153  -2.72450001
 H   3.63984093   3.83329797  -2.10360546
 H   3.52710120   3.19964533  -3.73898556
 O   5.56410954   1.15688449  -1.10420507
 C   1.63466767   3.32581389  -2.76192234
 H   1.23549577   3.35613123  -1.74462051
 H   1.16237693   2.46652935  -3.24816829
 C   1.23103170   4.60367635  -3.48414675
 H   1.62062144   4.58993184  -4.50947458
 H   0.13670762   4.63497394  -3.56837970
 C   1.70040608   5.87458355  -2.78996478
 H   1.34183148   5.87758314  -1.75762960
 H   2.79148543   5.89316752  -2.74559361
 N   1.26882453   7.11963413  -3.41730827
 H   1.58347597   7.14635228  -4.38076283
 H   0.25659236   7.15347260  -3.45566120
 O   5.68935411   1.67936290  -3.30870122
 H   5.50477084   2.51212967  -3.80188152
 H   6.63907563   1.65695097  -3.08032272
