21
conf-304
 N  -4.39003912   0.80327407   3.91857241
 H  -3.44453576   0.66722628   4.25471559
 H  -4.91759059   1.17688273   4.69723816
 C  -4.41970987   1.75590039   2.81121285
 H  -3.88572016   2.69454540   3.01658745
 H  -5.46016908   1.99379875   2.58876475
 C  -3.82807438   1.10096545   1.56729028
 O  -4.48099884   0.37560425   0.82998044
 N  -2.51120132   1.34167052   1.35764178
 H  -1.99842743   2.00196975   1.92348548
 C  -1.80644262   0.76337631   0.22796160
 H  -2.19896121  -0.24396474   0.08108815
 C  -0.34010647   0.72954924   0.60243285
 C  -2.02697924   1.58758129  -1.04439848
 H  -3.08723357   1.52508037  -1.28902012
 H  -1.81152851   2.63110415  -0.80634887
 O   0.24967546   1.75363104   0.93117774
 C  -1.18475023   1.20028204  -2.26203938
 H  -0.12969518   1.37851650  -2.00836920
 C  -1.34393217  -0.25945469  -2.66693067
 H  -2.38564519  -0.46941819  -2.92514782
 H  -0.72340863  -0.47380154  -3.54217242
 H  -1.03809819  -0.95380896  -1.88682175
 C  -1.55529656   2.11575791  -3.42658435
 H  -2.60217351   1.96796392  -3.69977046
 H  -1.41602133   3.16579486  -3.16217148
 H  -0.94243766   1.90636057  -4.30577268
 N   0.26158387  -0.49161901   0.55330231
 H  -0.23790090  -1.23039972   0.08330605
 C   1.72213005  -0.58418541   0.51258305
 H   2.09986064   0.20407981   1.16495474
 C   2.13932169  -0.32446929  -0.92988700
 C   2.22775967  -1.94739690   0.99814201
 H   1.74356287  -2.70315038   0.37466150
 O   1.95685365  -1.15605610  -1.81669381
 C   3.74559760  -2.06110979   0.82309453
 H   4.24720169  -1.28863051   1.41356448
 H   4.09527343  -3.03647657   1.17135264
 H   4.03863049  -1.94152397  -0.22093703
 C   1.85517000  -2.18183259   2.45914833
 H   2.33654343  -1.43098054   3.09110759
 H   2.20198122  -3.16626026   2.78179548
 H   0.77793263  -2.13144496   2.62222351
 N   2.68024250   0.89083167  -1.17381181
 H   2.51628299   1.62860503  -0.50651955
 C   3.03121895   1.23430233  -2.54239732
 H   2.24134875   0.85995394  -3.20278028
 C   4.27970060   0.48365957  -2.93991685
 C   3.17707694   2.74274620  -2.71166606
 H   3.30253544   2.96675531  -3.77204401
 H   2.22603527   3.19417767  -2.41550374
 O   5.07322139  -0.08026796  -2.25800795
 C   4.31038221   3.36106827  -1.90947600
 H   5.25947356   2.90501881  -2.21076315
 H   4.17668725   3.12014581  -0.85301796
 C   4.40836768   4.87715843  -2.05696143
 H   5.28390773   5.23127039  -1.50317722
 H   4.58894045   5.13533539  -3.10692634
 C   3.18349629   5.63120891  -1.56785751
 H   3.33529425   6.70737900  -1.72432490
 H   2.31643916   5.34859149  -2.17445184
 N   2.89521316   5.29281111  -0.16958608
 H   3.61759935   5.67141801   0.43337000
 H   2.03160343   5.73101836   0.12497458
 O   4.47604394   0.46993041  -4.37828760
 H   4.45468092   1.32038996  -4.87648147
 H   5.34633671   0.04869578  -4.52987230
