21
conf-34
 N  -2.99188542   2.79450324   3.26925994
 H  -3.45877089   3.56920635   3.71989870
 H  -2.22336614   2.53144499   3.87346528
 C  -3.92052349   1.67853745   3.09970845
 H  -4.89612670   2.07022977   2.81210353
 H  -4.06607318   1.06027701   3.98749446
 C  -3.48463819   0.72862060   1.98689889
 O  -3.98430233  -0.38233621   1.86086405
 N  -2.55731125   1.24362541   1.15483927
 H  -2.15335727   2.13220521   1.40199931
 C  -1.93570270   0.46568018   0.10729067
 H  -2.22352413  -0.57466518   0.25972201
 C  -0.42854100   0.62637437   0.26003681
 C  -2.36161319   0.93457463  -1.28353877
 H  -2.05552767   1.97734228  -1.39053110
 H  -1.80987595   0.36614689  -2.03855958
 O   0.05897831   1.72682039   0.51185302
 C  -3.85743603   0.80497522  -1.58431315
 H  -4.40869589   1.35235917  -0.81772162
 C  -4.16213216   1.44462887  -2.93497255
 H  -3.62266447   0.92502343  -3.73120182
 H  -5.23002631   1.39884202  -3.16128014
 H  -3.85921414   2.49380088  -2.94671340
 C  -4.31271942  -0.65177871  -1.55956643
 H  -3.76696235  -1.22773231  -2.31352133
 H  -4.14872895  -1.11686456  -0.58718202
 H  -5.37913945  -0.72128686  -1.78945029
 N   0.33078082  -0.47346039   0.06856788
 H  -0.09458267  -1.33448795  -0.23053745
 C   1.79171408  -0.41071302   0.10955061
 H   2.04001882   0.30417972   0.89697670
 C   2.27635329   0.14013931  -1.23535350
 C   2.41897870  -1.76971492   0.43990378
 H   2.23352896  -2.42079703  -0.41470694
 O   2.72408959  -0.59811147  -2.12660286
 C   3.92809810  -1.62161326   0.64597622
 H   4.12028153  -0.96423480   1.49758885
 H   4.38266677  -2.59262135   0.85521790
 H   4.41299546  -1.19727888  -0.23203717
 C   1.79903591  -2.39317903   1.68752340
 H   1.95426940  -1.74291388   2.55289970
 H   2.27114532  -3.35563392   1.89761856
 H   0.72891728  -2.56272608   1.57136489
 N   2.17072734   1.47189896  -1.40330225
 H   1.64987599   1.97987841  -0.69538196
 C   2.23633821   2.08055345  -2.74067700
 H   1.69975962   1.42969578  -3.44122827
 C   3.67998689   2.12113528  -3.16436085
 C   1.57558456   3.45332137  -2.71076981
 H   0.60901734   3.32381735  -2.21381659
 H   2.17307843   4.12176665  -2.08827967
 O   4.47835837   2.99340295  -3.05137009
 C   1.35062236   4.07130920  -4.08065466
 H   0.80810902   3.36003142  -4.70975863
 H   2.30352997   4.26415503  -4.57251981
 C   0.55886326   5.36774664  -3.98916667
 H  -0.40918815   5.17062266  -3.51478648
 H   1.09259006   6.07136152  -3.34069567
 C   0.32775903   6.02223783  -5.33735923
 H  -0.16880348   5.30944349  -6.00273520
 H  -0.35415708   6.87613855  -5.22006165
 N   1.60877457   6.39139166  -5.95030096
 H   1.45558348   6.77648675  -6.87382739
 H   2.04888432   7.12806495  -5.40922026
 O   4.08274209   0.85893762  -3.73636624
 H   3.59225287   0.11981588  -3.21000357
 H   5.05504721   0.82000476  -3.65054573
