21
conf-684
 N  -3.28895480   4.38931008   1.77038436
 H  -3.73048955   5.29818596   1.76168573
 H  -2.67654057   4.37553412   2.57644509
 C  -4.30179742   3.34049274   1.87295508
 H  -5.15525517   3.61279390   1.25212724
 H  -4.67709884   3.15833926   2.88155939
 C  -3.79249799   1.99533893   1.35832320
 O  -4.37849520   0.94984825   1.60917988
 N  -2.69314392   2.08456432   0.58102178
 H  -2.22785475   2.97710518   0.54466974
 C  -1.98828315   0.92140991   0.10487404
 H  -2.36502217   0.05796294   0.65531443
 C  -0.50460158   1.09784919   0.38793104
 C  -2.17727449   0.68752087  -1.39506387
 H  -1.88391597   1.60692098  -1.91506486
 H  -1.47619968  -0.09068961  -1.71568156
 O   0.04231875   2.18828929   0.37508432
 C  -3.59406194   0.30455166  -1.82314919
 H  -4.27275861   1.09098774  -1.49047604
 C  -3.66546066   0.23564363  -3.34470515
 H  -2.97091254  -0.51973635  -3.72266941
 H  -4.67053545  -0.02757856  -3.68199652
 H  -3.40345017   1.19609341  -3.79694157
 C  -4.04849624  -1.01522192  -1.20192215
 H  -3.37367696  -1.82447332  -1.49691508
 H  -4.07884451  -0.96710351  -0.11308875
 H  -5.05140214  -1.27042045  -1.55343788
 N   0.17812108  -0.06887925   0.61208114
 H  -0.28085570  -0.90413094   0.28759918
 C   1.63068049  -0.08562398   0.42187833
 H   2.02672756   0.81593200   0.89182208
 C   1.88113880  -0.04070206  -1.08650307
 C   2.25647574  -1.32796576   1.07288159
 H   1.77445406  -2.19233066   0.60971597
 O   1.33619423  -0.84012394  -1.84621029
 C   3.76280191  -1.41561756   0.82874407
 H   4.26554919  -0.54853494   1.26898725
 H   4.16578394  -2.31503086   1.29912967
 H   4.00751848  -1.45412372  -0.23665451
 C   1.99301216  -1.35084818   2.57819617
 H   2.48450215  -0.49663451   3.05139129
 H   2.40670566  -2.26258163   3.01542968
 H   0.92903151  -1.31069560   2.81310753
 N   2.70337515   0.94398699  -1.51363114
 H   3.12746219   1.56931303  -0.84768911
 C   3.05582022   1.07591738  -2.91191306
 H   2.75701453   0.14775923  -3.40193929
 C   4.55088347   1.21945251  -3.02063860
 C   2.36823743   2.25784654  -3.58971150
 H   2.70704236   3.19002812  -3.13395868
 H   2.67749985   2.27960525  -4.63637477
 O   5.32106617   1.53653732  -2.17467941
 C   0.85079838   2.16904861  -3.53385507
 H   0.50158242   2.27573113  -2.50482985
 H   0.54208440   1.17032935  -3.86155505
 C   0.17294971   3.21147170  -4.40529511
 H   0.43586245   4.21453134  -4.06168629
 H   0.52903019   3.12660860  -5.43685611
 C  -1.33109535   3.06715926  -4.39904470
 H  -1.58872723   2.05230182  -4.74449599
 H  -1.69444415   3.16426457  -3.37129532
 N  -1.94348376   4.12563454  -5.20138363
 H  -1.69366076   4.00222566  -6.17534063
 H  -2.95197893   4.05046590  -5.16128056
 O   5.05721181   0.92638221  -4.34581926
 H   4.63975642   1.35255989  -5.13142810
 H   6.00666874   1.16246411  -4.32222782
