59
FPK_10
N         -9.49800       17.81500       13.65100
H        -10.35300       17.41800       14.01500
H         -9.60200       17.94600       12.65500
C         -8.41000       16.82100       13.86500
H         -8.31000       16.53000       14.91100
C         -7.06800       17.61000       13.55600
C         -8.68300       15.50000       13.07500
H         -8.24300       15.69800       12.09800
H         -8.19800       14.65900       13.57000
O         -7.04000       18.82700       13.86300
C        -10.14000       15.02500       12.73800
C        -10.73100       15.34300       11.43900
H        -10.31100       16.04300       10.73200
C        -10.70800       14.13500       13.63400
H        -10.20000       13.76800       14.51300
C        -12.00900       14.80100       11.08900
H        -12.46100       14.77500       10.10900
C        -12.04200       13.66900       13.27400
H        -12.63300       13.03100       13.91500
C        -12.63000       14.00600       12.08800
H        -13.64700       13.68000       11.93200
N         -5.96300       16.99400       13.12400
C         -4.78100       17.73300       12.75700
H         -4.25100       18.16100       13.60800
C         -4.98100       18.87300       11.74500
C         -3.86400       16.66100       12.08700
H         -4.07200       16.59500       11.01900
H         -2.83600       16.95600       12.29500
O         -4.41500       19.95500       11.89800
C         -4.24000       15.39100       12.89700
H         -3.99700       14.53200       12.27100
H         -3.69600       15.34700       13.84000
C         -5.66700       15.54800       13.14900
H         -6.02000       15.08800       14.07300
H         -6.10800       15.02500       12.30100
N         -5.99200       18.75800       10.94100
H         -6.32400       17.80500       10.89300
C         -6.87700       19.83500       10.48300
H         -6.60200       20.74400       11.01900
C         -8.28100       19.54300       10.91000
C         -6.67000       20.05900        8.95900
H         -6.76400       19.09400        8.46100
H         -5.63800       20.40000        8.87100
O         -8.63400       18.35300       11.05900
C         -7.53500       21.12900        8.23600
H         -7.38000       21.00300        7.16400
H         -8.60300       21.07700        8.45000
C         -7.17700       22.67900        8.49600
H         -7.32300       23.21900        7.56100
H         -6.14000       22.94900        8.69500
C         -8.10400       23.43700        9.49400
H         -7.92400       24.50900        9.41300
H         -9.13500       23.20600        9.22500
N         -7.87800       22.97600       10.89500
H         -8.28700       23.67400       11.50000
H         -6.88700       22.89300       11.06900
O         -8.93300       20.52400       11.34000
H         -9.81560       20.23860       11.58730
H         -6.29620       16.95900       12.17120
