21
conf-727
 N  -3.77300992   0.46949586   3.42656386
 H  -4.72746834   0.44680243   3.08965838
 H  -3.83074795   0.54781612   4.43231283
 C  -3.07254519  -0.76186787   3.06120329
 H  -3.69173385  -1.66001454   3.04952225
 H  -2.26446923  -0.93627226   3.77082282
 C  -2.42628563  -0.66432974   1.68375379
 O  -1.90499336  -1.65017529   1.15864357
 N  -2.44021242   0.55209427   1.13255279
 H  -2.83917628   1.28973316   1.68667985
 C  -1.90438244   0.81461019  -0.19119380
 H  -2.07132507  -0.09824811  -0.77217282
 C  -0.38945563   1.02417267  -0.10208478
 C  -2.61120544   1.99045939  -0.84004455
 H  -2.39711710   2.89487045  -0.27044839
 H  -2.18070204   2.14560911  -1.83453552
 O   0.15901954   2.10734764  -0.33133083
 C  -4.12107653   1.81618865  -0.97933807
 H  -4.54336357   1.74327897   0.03137567
 C  -4.71204831   3.04596142  -1.66071195
 H  -4.31330678   3.13920074  -2.67468100
 H  -5.79998855   2.97740101  -1.73286468
 H  -4.46762853   3.96143300  -1.11694217
 C  -4.48306929   0.54639783  -1.74146820
 H  -4.04066187   0.56475476  -2.74309724
 H  -4.13752113  -0.35615442  -1.23100954
 H  -5.56704738   0.46845672  -1.86065014
 N   0.32171946  -0.06796661   0.25278782
 H  -0.16700370  -0.93369358   0.44910842
 C   1.75239532   0.02134795   0.48460915
 H   1.94387962   1.03806879   0.84121709
 C   2.45347757  -0.17080843  -0.85783887
 C   2.25936329  -0.97764152   1.53129301
 H   2.18779967  -1.97126543   1.08797069
 O   2.91366689  -1.26355348  -1.22654789
 C   3.72348394  -0.68215319   1.86398617
 H   3.80770204   0.31755945   2.29671285
 H   4.10615247  -1.40262163   2.59058210
 H   4.35390855  -0.72418619   0.97521032
 C   1.41957624  -0.93733218   2.80599031
 H   1.44374693   0.06442907   3.24264197
 H   1.82180801  -1.63907291   3.53893074
 H   0.37898430  -1.20976222   2.61755568
 N   2.51133324   0.91865491  -1.63827648
 H   1.97103102   1.72708392  -1.35528923
 C   2.87205993   0.81529968  -3.04925621
 H   2.43996323  -0.11712848  -3.43906379
 C   4.36204805   0.64466309  -3.23122511
 C   2.34133645   1.99537920  -3.85770951
 H   2.66694612   2.92555781  -3.39237114
 H   2.80053294   1.96203612  -4.84638097
 O   5.02847198   0.96357278  -4.16009934
 C   0.82965659   1.97900556  -4.00432214
 H   0.35383476   2.05004303  -3.02364260
 H   0.52440820   1.01590320  -4.42823051
 C   0.31959438   3.10073776  -4.89357275
 H   0.58078141   4.06710300  -4.45516361
 H   0.81276794   3.05573155  -5.87074898
 C  -1.17827985   3.04847309  -5.10713096
 H  -1.44858877   2.06698523  -5.52232975
 H  -1.68222040   3.14085464  -4.13661852
 N  -1.60474712   4.17017846  -5.94284023
 H  -1.21989519   4.06857774  -6.87469707
 H  -2.61040072   4.16643877  -6.05615104
 O   4.98617267  -0.10068458  -2.16313045
 H   4.29426167  -0.76495361  -1.79727381
 H   5.76724204  -0.53643338  -2.56007327
