21
conf-123
 N  -4.73538068   0.97588979   3.35053202
 H  -5.08741354   1.34421863   4.22602195
 H  -5.34503315   1.31934498   2.61760077
 C  -3.36097895   1.44345021   3.15870157
 H  -3.28514024   2.54214221   3.19085198
 C  -2.87193331   0.97152615   1.79558468
 C  -2.47706336   0.85409366   4.25404852
 H  -1.43088980   1.10429162   4.04362633
 H  -2.56141377  -0.23109970   4.20063004
 O  -2.49379403  -0.18382101   1.59849619
 C  -2.85432592   1.34880571   5.62287536
 C  -2.31785481   2.53321167   6.12960065
 H  -1.59059783   3.08444372   5.54270644
 C  -3.78246136   0.65230199   6.39298001
 H  -4.21617944  -0.26139382   5.99699341
 C  -2.70332579   3.00879253   7.38092982
 H  -2.27312823   3.92977630   7.75816407
 C  -4.17718107   1.12648219   7.64130119
 H  -4.90696643   0.57104944   8.21891067
 C  -3.63637497   2.30785733   8.13953438
 H  -3.93968094   2.67864506   9.11202840
 N  -2.92342148   1.89753505   0.81122671
 H  -3.02645391   2.86431966   1.06922599
 C  -2.39886637   1.63520788  -0.52786037
 H  -2.63796248   0.58877797  -0.72903243
 C  -0.87546061   1.78807646  -0.52016628
 C  -3.03625491   2.55143702  -1.55693911
 H  -2.90187995   3.58066105  -1.21876328
 H  -2.48432928   2.46350230  -2.49343804
 O  -0.28902190   2.71002186  -1.09189208
 C  -4.51355864   2.27345295  -1.82629832
 H  -5.04298258   2.24650877  -0.87011901
 C  -5.10124964   3.40690577  -2.66399024
 H  -4.58324787   3.47767980  -3.62444380
 H  -6.16217434   3.24019314  -2.86575965
 H  -5.00424855   4.36869119  -2.15533299
 C  -4.71141776   0.93634956  -2.53501212
 H  -4.23062356   0.95824358  -3.51724798
 H  -4.28500632   0.10276227  -1.97222800
 H  -5.77423015   0.73056887  -2.68411396
 N  -0.20718252   0.85135147   0.18466086
 H  -0.74600942   0.14570151   0.67980673
 C   1.21025022   0.99663937   0.46902850
 H   1.43675010   2.06723179   0.50435186
 C   2.05137193   0.36645498  -0.65004328
 C   1.55427287   0.38546473   1.82116609
 H   0.78142824   0.68515661   2.53598090
 H   1.56784621  -0.70529734   1.76730096
 O   2.82357123  -0.56015083  -0.45933040
 C   2.87154990   0.93395252   2.34453780
 N   3.55710360   0.10043495   3.17480928
 H   4.45876310   0.40513416   3.49672584
 H   3.28296827  -0.85508772   3.30188100
 O   3.24969017   2.06008146   2.07902383
 N   1.85991241   0.90438268  -1.88096201
 H   1.31301186   1.75195896  -1.95692334
 C   2.70216197   0.49112115  -2.98235811
 H   2.76992435  -0.60017203  -2.96742671
 C   4.12215006   1.00660804  -2.84113225
 C   2.09141376   0.95104923  -4.31182980
 H   2.08235923   2.04231464  -4.34459022
 H   1.05577662   0.61863414  -4.31911000
 O   5.10525318   0.40320863  -3.19296636
 C   2.81838982   0.39782520  -5.52807512
 H   3.84859554   0.76606294  -5.55476683
 H   2.88462820  -0.69149716  -5.45439601
 C   2.12409918   0.77156479  -6.82197186
 H   1.99860598   1.85574748  -6.85844962
 H   2.73333892   0.47969379  -7.68586413
 N   0.79265235   0.12683078  -6.87802654
 H   0.78294691  -0.82663256  -6.54218583
 N   0.18558129   1.29766069  -8.81268997
 H  -0.57817779   1.62878086  -9.38022719
 H   0.90450235   1.97176124  -8.60843596
 N  -1.12052463  -0.48675099  -8.02899131
 H  -1.85497646  -0.19250660  -8.65431836
 H  -1.44497284  -0.94992593  -7.19106097
 C  -0.04980182   0.33372614  -7.90322428
 O   4.17354067   2.24960344  -2.32136848
 H   5.10550819   2.49497946  -2.29148304
