21
conf-605
 N  -4.06959215   0.70869418   4.71962907
 H  -4.84397414   0.09191887   4.50356252
 H  -3.30902717   0.10382272   5.00501901
 C  -3.67464233   1.44805718   3.53447021
 H  -4.53539806   2.04483504   3.20695381
 C  -3.26189545   0.55751926   2.36454586
 C  -2.53518916   2.43589871   3.87021430
 H  -2.95663883   3.20682277   4.52139109
 H  -2.20495689   2.91402941   2.94306860
 O  -2.81447844  -0.56644387   2.49681909
 C  -1.36109098   1.78998199   4.56128626
 C  -1.33964456   1.68800879   5.95244798
 H  -2.17958954   2.07904182   6.51845997
 C  -0.28756678   1.25617943   3.84518954
 H  -0.28294594   1.35256519   2.76593221
 C  -0.28703561   1.06142604   6.61526590
 H  -0.30331435   0.99107642   7.69664768
 C   0.76649227   0.62319316   4.50393213
 H   1.58133685   0.22165540   3.92474078
 C   0.77342879   0.52673139   5.88902133
 H   1.59362274   0.03518782   6.40238334
 N  -3.42874511   1.13222132   1.13218481
 H  -3.60048781   2.12155483   1.12629208
 C  -2.65604865   0.63162398   0.00117250
 H  -2.76594701  -0.45138572  -0.00726152
 C  -1.18871926   1.01493606   0.19820864
 C  -3.19396970   1.25078711  -1.28728355
 H  -4.24394261   0.96474186  -1.37683548
 H  -3.15967225   2.33613056  -1.16564515
 O  -0.88424596   2.16257422   0.53613791
 C  -2.46183262   0.88139414  -2.57850609
 H  -1.42123288   1.21028147  -2.48020143
 C  -2.46716082  -0.62174550  -2.84274418
 H  -3.49289521  -0.99346923  -2.91602031
 H  -1.95659888  -0.84483977  -3.78334714
 H  -1.95085416  -1.18107351  -2.06065997
 C  -3.09768590   1.63146745  -3.74634118
 H  -4.14220878   1.33292080  -3.86064246
 H  -3.06498797   2.71105958  -3.58606023
 H  -2.57916175   1.41446518  -4.68213790
 N  -0.29007088   0.03360944  -0.04862480
 H  -0.57590857  -0.92317630  -0.18932664
 C   1.12992007   0.27496768  -0.12597718
 H   1.27291104   1.35159216  -0.04299305
 C   1.65471791  -0.18986487  -1.49364326
 C   1.86450890  -0.39924997   1.03316751
 H   2.91655396  -0.10848635   1.04934705
 H   1.41075941  -0.03216610   1.95803508
 O   0.96023114  -0.74091419  -2.33622553
 C   1.72916441  -1.91582955   1.03328134
 N   2.73150804  -2.58122506   1.66487501
 H   2.67560621  -3.58388249   1.70768551
 H   3.50115887  -2.10263639   2.09436423
 O   0.77222789  -2.48608318   0.53455591
 N   2.97685589   0.03266274  -1.68268332
 H   3.49810526   0.60517191  -1.03678347
 C   3.61242520  -0.34177685  -2.93574530
 H   3.15228207  -1.26773222  -3.28384625
 C   5.08289353  -0.61205501  -2.69444532
 C   3.43076142   0.73340717  -4.02232197
 H   3.93114366   1.64970710  -3.70249153
 H   2.36620065   0.94906098  -4.07922477
 O   5.72174455  -1.50354933  -3.19117335
 C   3.95869353   0.28510413  -5.37919461
 H   5.00639612  -0.02319174  -5.30182029
 H   3.39817840  -0.59091275  -5.70910759
 C   3.87030607   1.36092109  -6.45476203
 H   4.37181229   2.26958996  -6.11495570
 H   4.40349461   1.04235586  -7.35659656
 N   2.50172508   1.76696854  -6.82428695
 H   2.05430216   2.42167730  -6.19993110
 N   2.07502040  -0.19405113  -8.01792597
 H   1.54992353  -0.63080631  -8.75891661
 H   3.06406676  -0.38143085  -8.01449119
 N   0.37308292   1.38365193  -7.66010276
 H  -0.18634849   0.90594974  -8.35096190
 H   0.18577458   2.37381134  -7.57565875
 C   1.66263372   0.98766767  -7.52176469
 O   5.63290125   0.30867985  -1.87016932
 H   6.56725907   0.08275920  -1.78410783
