21
conf-879
 N  -4.55915107   1.93783046   3.88387054
 H  -4.02506594   1.12517711   4.17405384
 H  -4.37621262   2.68768337   4.53875596
 C  -4.10914529   2.32748502   2.56439413
 H  -4.89866793   2.92063670   2.08634002
 C  -3.85674402   1.08114928   1.73170477
 C  -2.82077951   3.18192372   2.56375343
 H  -2.50958460   3.31873859   1.52131795
 H  -2.02012827   2.62999826   3.06328955
 O  -3.48951494   0.03001236   2.22656156
 C  -3.01147178   4.52420071   3.22303885
 C  -3.91345447   5.44746477   2.69747887
 H  -4.47320642   5.17963644   1.80819599
 C  -2.30069830   4.86498948   4.37011158
 H  -1.60135409   4.15165896   4.79410967
 C  -4.08808102   6.69288176   3.29247238
 H  -4.79002288   7.39758464   2.86026694
 C  -2.48059725   6.10352330   4.98028568
 H  -1.91770577   6.34588664   5.87466707
 C  -3.37383258   7.02291351   4.44039812
 H  -3.51300500   7.99031809   4.90975145
 N  -4.01056348   1.24549462   0.37719164
 H  -4.09450363   2.19624219   0.05917657
 C  -3.21423125   0.39735339  -0.51132208
 H  -3.13147195  -0.57018092  -0.01737697
 C  -1.85542457   1.06212048  -0.64881812
 C  -3.85964812   0.25046877  -1.87674016
 H  -4.81773102  -0.25677537  -1.74402979
 H  -4.07122819   1.25073413  -2.26381290
 O  -1.70880482   2.07895562  -1.31653831
 C  -3.01470673  -0.50909113  -2.90809097
 H  -2.10648936   0.08020890  -3.08782164
 C  -2.59233523  -1.89028245  -2.41571599
 H  -3.46862800  -2.49491994  -2.16276858
 H  -2.03633125  -2.41340672  -3.19867094
 H  -1.93942993  -1.83317596  -1.54364099
 C  -3.79367955  -0.61190522  -4.21711778
 H  -4.70245782  -1.19976548  -4.06938645
 H  -4.07960557   0.37671077  -4.58239045
 H  -3.19556713  -1.09731706  -4.99134186
 N  -0.86692554   0.50387715   0.08928457
 H  -1.03196628  -0.39346539   0.50355472
 C   0.51199496   0.91371328  -0.09588420
 H   0.52136935   2.00234048  -0.16958358
 C   1.06878247   0.30196117  -1.38798769
 C   1.37057101   0.47887843   1.09081739
 H   1.31467105  -0.60228721   1.21494900
 H   2.41483810   0.72708382   0.89496892
 O   0.67762625  -0.75585920  -1.84967453
 C   0.97243521   1.17609284   2.38113139
 N   1.21481837   0.47099947   3.51489718
 H   1.00601118   0.90937194   4.39390598
 H   1.65947546  -0.42767985   3.49982348
 O   0.49300092   2.30137704   2.40318043
 N   2.06055669   1.03250960  -1.98094931
 H   2.51634755   1.71782770  -1.40656005
 C   2.89770413   0.38440982  -2.97904582
 H   2.24055521  -0.10852277  -3.69750292
 C   3.76078432  -0.66023309  -2.30166035
 C   3.75757775   1.43873403  -3.68271756
 H   4.41477355   1.90227681  -2.94186665
 H   3.07049702   2.21253887  -4.03355501
 O   4.12881889  -0.61462677  -1.15475696
 C   4.56663683   0.91119411  -4.85888808
 H   5.28644058   0.16348387  -4.52682625
 H   3.90393741   0.41277814  -5.56521359
 C   5.30067577   2.03372482  -5.57394491
 H   4.59662045   2.81416643  -5.88132138
 H   6.00800014   2.50146033  -4.88587159
 N   6.09501834   1.60647133  -6.73996049
 H   6.98022543   1.16953937  -6.52434533
 N   4.20968211   1.30003381  -8.08553756
 H   3.83741489   1.27812966  -9.02150306
 H   3.67238701   1.81895740  -7.41084493
 N   6.34054222   0.66589393  -8.84141533
 H   5.95837969   0.55997827  -9.76963835
 H   7.32017551   0.91602568  -8.81255401
 C   5.53922779   1.21333372  -7.89463468
 O   4.11179967  -1.64801779  -3.15280494
 H   4.68430573  -2.24400502  -2.65570405
