21
conf-684
 N  -4.61386477   2.18463279   4.05768607
 H  -5.34589151   2.50977327   3.43728558
 H  -4.79159756   1.19124022   4.15785317
 C  -3.32330480   2.36247199   3.41469023
 H  -3.21418637   3.42198288   3.15306760
 C  -3.19346044   1.54544794   2.12644856
 C  -2.17946179   2.01464201   4.38837619
 H  -2.35180727   2.58109182   5.30631706
 H  -1.23586198   2.36137067   3.95577628
 O  -4.03710387   0.74037773   1.75937561
 C  -2.08788997   0.54647099   4.69778887
 C  -1.23734588  -0.28888116   3.96769646
 H  -0.59770038   0.13815429   3.20166433
 C  -2.88169241  -0.01980659   5.69066012
 H  -3.54424767   0.62391015   6.26122387
 C  -1.21502114  -1.66327578   4.20349962
 H  -0.56979803  -2.28487805   3.60098345
 C  -2.85221201  -1.39007766   5.93931798
 H  -3.48483502  -1.80558521   6.71481511
 C  -2.02169775  -2.21919292   5.19267620
 H  -2.00398398  -3.28655465   5.38188861
 N  -2.04502082   1.74558397   1.43731157
 H  -1.42104170   2.49476543   1.68672709
 C  -1.72673140   0.96643285   0.25040728
 H  -2.10458575  -0.04639068   0.42816080
 C  -0.21427183   0.98220963   0.12391912
 C  -2.38357422   1.52356187  -1.00264507
 H  -3.45822356   1.56225343  -0.82004617
 H  -2.04067327   2.54960563  -1.14525666
 O   0.38386146   2.01530297  -0.18565535
 C  -2.11792170   0.71789409  -2.27817431
 H  -1.04003926   0.77991986  -2.50115040
 C  -2.50241306  -0.75075257  -2.12586773
 H  -3.52830898  -0.83234622  -1.75184230
 H  -2.45577426  -1.25594974  -3.09332054
 H  -1.84410061  -1.29143095  -1.44433940
 C  -2.88727712   1.35296186  -3.43468355
 H  -3.96190419   1.30002934  -3.24753909
 H  -2.61378686   2.40172974  -3.56618613
 H  -2.68303630   0.82755497  -4.37124930
 N   0.41727464  -0.17288741   0.39766656
 H  -0.11256036  -0.97305701   0.72258665
 C   1.87017179  -0.23125817   0.47914972
 H   2.19566307   0.76950104   0.78032016
 C   2.49334433  -0.51932262  -0.89812563
 C   2.31628980  -1.26015960   1.51761619
 H   3.40342951  -1.34102293   1.50339735
 H   1.99176875  -0.91349345   2.50040269
 O   3.20591413  -1.49394866  -1.10885903
 C   1.67260627  -2.60772955   1.27434907
 N   2.47371939  -3.57385688   0.75120912
 H   1.99417102  -4.41546255   0.47481149
 H   3.23727633  -3.26872199   0.16158550
 O   0.49757194  -2.80304805   1.55915796
 N   2.19227810   0.37908295  -1.86786361
 H   1.72914827   1.23769425  -1.59470213
 C   2.90511221   0.33345656  -3.12788999
 H   2.91648117  -0.70511609  -3.46927497
 C   4.35718116   0.75256953  -2.97732005
 C   2.20541607   1.21552325  -4.16986067
 H   2.28298049   2.26221722  -3.86957436
 H   1.14697538   0.95199469  -4.15576593
 O   5.27585053   0.27842579  -3.59840001
 C   2.76223587   1.03064420  -5.57345416
 H   3.82644487   1.28544785  -5.59500901
 H   2.69411513  -0.02325555  -5.85781951
 C   2.03223924   1.87125772  -6.60128228
 H   2.07518035   2.92198408  -6.30558876
 H   2.51688155   1.78440903  -7.58150386
 N   0.61668760   1.44571182  -6.67573098
 H   0.47983272   0.44725591  -6.60170561
 N   0.06236596   3.16136067  -8.16830936
 H  -0.67562169   3.74370072  -8.53086097
 H   0.91349747   3.63473705  -7.91401020
 N  -1.47172187   1.44995444  -7.67314081
 H  -2.19083894   2.02392680  -8.08721693
 H  -1.79821983   0.87838550  -6.90404504
 C  -0.25994638   2.04035168  -7.49798362
 O   4.51429415   1.76665268  -2.10198994
 H   5.45527491   1.97663972  -2.09385251
