21
conf-727
 N  -5.85861058   1.74353614   3.78500525
 H  -6.54282190   2.04477508   3.10071970
 H  -6.08644827   0.77503488   3.98703534
 C  -4.52227463   1.81837050   3.22193930
 H  -4.36545765   2.83436437   2.84174514
 C  -4.28877892   0.84084902   2.07156982
 C  -3.46073631   1.56211450   4.30848603
 H  -3.64779944   2.26154666   5.12670989
 H  -2.47398091   1.78034184   3.88396037
 O  -4.88217575  -0.21830823   1.97543676
 C  -3.47937219   0.14664819   4.81263508
 C  -4.34850517  -0.24495772   5.82453377
 H  -5.00865619   0.49753728   6.26455202
 C  -2.63893207  -0.81751058   4.25182442
 H  -1.95108027  -0.50944378   3.46555635
 C  -4.39892956  -1.56763874   6.25929056
 H  -5.09081767  -1.84423463   7.04557588
 C  -2.68843592  -2.14458325   4.67587978
 H  -2.02438182  -2.86717360   4.21605433
 C  -3.56820560  -2.52468219   5.68314355
 H  -3.60662788  -3.55471117   6.01785205
 N  -3.32928854   1.23948777   1.19197392
 H  -2.81231516   2.07432943   1.40173506
 C  -2.66134916   0.28775131   0.33383244
 H  -3.07654813  -0.69526062   0.57753552
 C  -1.17107571   0.25435251   0.77849709
 C  -2.87942671   0.59082861  -1.14319390
 H  -2.47796392   1.58543142  -1.35522941
 H  -2.30921176  -0.11715582  -1.74770137
 O  -0.85414034   0.77116115   1.86111536
 C  -4.33989469   0.53136514  -1.59874670
 H  -4.93196227   1.19202100  -0.96153644
 C  -4.43985473   1.03714783  -3.03394461
 H  -3.85860694   0.39894587  -3.70428043
 H  -5.47588547   1.03706001  -3.38138841
 H  -4.05755692   2.05668655  -3.11725183
 C  -4.90527714  -0.88141064  -1.48573130
 H  -4.33059185  -1.56757103  -2.11518065
 H  -4.88322180  -1.25520952  -0.46074130
 H  -5.94357144  -0.90470897  -1.82722412
 N  -0.34961238  -0.49866197  -0.02863209
 H  -0.66817627  -0.65154408  -0.97347010
 C   1.09482015  -0.28359153  -0.03437492
 H   1.34729936   0.55227250   0.63313459
 C   1.43136849   0.07176678  -1.48658882
 C   1.86901791  -1.53087426   0.41291169
 H   1.40562675  -2.40183782  -0.05105765
 H   2.91446610  -1.47638601   0.10170403
 O   0.65319945  -0.16201247  -2.39749966
 C   1.87565202  -1.66278126   1.93424301
 N   0.67061802  -2.00584411   2.47221199
 H   0.57269171  -1.80693840   3.45349447
 H  -0.15385848  -1.87919378   1.91281105
 O   2.87550668  -1.48672713   2.60478729
 N   2.64852671   0.62576225  -1.69110339
 H   3.32010188   0.67539511  -0.94437178
 C   3.09616457   0.87900553  -3.04638313
 H   2.81460476   0.02207070  -3.66514293
 C   4.60244092   1.01222572  -3.12739150
 C   2.45127896   2.12008470  -3.67012943
 H   1.36974130   2.00332651  -3.61533129
 H   2.72952025   2.12572837  -4.72390313
 O   5.18645635   1.33015399  -4.13238162
 C   2.88625154   3.42094217  -3.01659336
 H   2.45302524   3.49717101  -2.01633238
 H   3.97303097   3.43384288  -2.88928044
 C   2.47211138   4.62483672  -3.83749201
 H   1.39336738   4.60792391  -4.00566459
 H   2.71259545   5.55212498  -3.30447932
 N   3.16941848   4.57855545  -5.14199397
 H   4.08974533   4.16128511  -5.11065752
 N   2.06201316   6.47663990  -5.92818031
 H   1.77297422   7.00316483  -6.73685191
 H   1.35837578   6.33278048  -5.22312414
 N   3.85774939   5.55918287  -7.13058927
 H   3.58368093   6.12326852  -7.92054558
 H   4.31645257   4.69264124  -7.37782203
 C   3.01162103   5.53134798  -6.07072598
 O   5.23535185   0.76120997  -1.96393149
 H   6.17999314   0.86669192  -2.13285207
