21
conf-777
 N  -0.95130117   4.80191175   1.79439455
 H  -0.07891129   4.39753957   2.11123225
 H  -0.81226626   5.02499313   0.81526693
 C  -2.02662767   3.83402788   1.92283563
 H  -2.05960522   3.50747605   2.96942503
 C  -1.83105386   2.60767987   1.03699727
 C  -3.37926766   4.47705942   1.57739306
 H  -3.49961069   5.35094219   2.22281360
 H  -4.17963870   3.76985293   1.82171587
 O  -1.25350213   2.67190699  -0.03537570
 C  -3.47956099   4.89563754   0.13235506
 C  -3.05789347   6.16655543  -0.25161124
 H  -2.66472389   6.83814346   0.50728876
 C  -3.96216871   4.03234854  -0.85549426
 H  -4.28262827   3.02952059  -0.58437398
 C  -3.10854979   6.57647784  -1.58244316
 H  -2.77183502   7.57040932  -1.84905410
 C  -4.01391410   4.43491881  -2.18773415
 H  -4.39183161   3.75780627  -2.94250803
 C  -3.59151360   5.70869628  -2.55731808
 H  -3.63782454   6.02076360  -3.59415720
 N  -2.42550414   1.46685648   1.47996226
 H  -2.63991589   1.39101017   2.45874718
 C  -2.22943462   0.21223535   0.75776034
 H  -2.61673758  -0.55826684   1.43089911
 C  -0.72502098  -0.07253554   0.62986081
 C  -3.03190563   0.19006513  -0.54258173
 H  -2.71385740   1.03266572  -1.15820111
 H  -2.81938995  -0.72604258  -1.09687167
 O   0.03905460   0.22478898   1.54363497
 C  -4.54437428   0.25475791  -0.32688275
 H  -4.76902017   1.07640256   0.35973712
 C  -5.23556288   0.55211804  -1.65182798
 H  -4.99741733  -0.21924824  -2.38852200
 H  -6.32222220   0.58752892  -1.53786777
 H  -4.90975236   1.51876267  -2.05511838
 C  -5.07261114  -1.04317623   0.27307757
 H  -4.93804642  -1.86372561  -0.43687001
 H  -4.55786737  -1.31740029   1.19618910
 H  -6.13956787  -0.96252903   0.49519022
 N  -0.28674731  -0.67360221  -0.49339950
 H  -0.91453889  -0.96306883  -1.22762518
 C   1.10679108  -1.06467197  -0.62760246
 H   1.46019572  -1.31547876   0.37608634
 C   1.95734223   0.10528314  -1.15313033
 C   1.21671564  -2.27574517  -1.55173844
 H   2.26588126  -2.50535832  -1.74220606
 H   0.74679576  -3.12446289  -1.05317929
 O   2.51112564   0.06982547  -2.25090191
 C   0.47255032  -2.03365652  -2.84825223
 N   1.23754750  -1.89625772  -3.96481035
 H   0.72969314  -1.62111365  -4.79094236
 H   2.16173329  -1.50017152  -3.84807604
 O  -0.74977475  -2.00505229  -2.87906194
 N   2.06080523   1.16975466  -0.32627057
 H   1.57432339   1.16868891   0.56420225
 C   2.85987407   2.31347088  -0.71817916
 H   3.72341287   1.95333704  -1.28374236
 C   3.33312301   3.03809219   0.51650650
 C   2.05866807   3.26502925  -1.62071182
 H   1.20406108   3.64458264  -1.05861465
 H   1.66880458   2.66188173  -2.43962989
 O   2.68847891   3.16993720   1.52746208
 C   2.88136859   4.41902939  -2.17601310
 H   3.21373887   5.07630952  -1.37207054
 H   3.77573463   4.02116039  -2.66172708
 C   2.09529446   5.23732557  -3.18529662
 H   1.74436702   4.59330742  -4.00083266
 H   1.21217662   5.66100799  -2.69819621
 N   2.93729017   6.33126707  -3.70515351
 H   3.91653029   6.10333241  -3.79345616
 N   1.19951717   7.19247240  -5.01477977
 H   0.81894772   8.00795419  -5.46642070
 H   0.54960574   6.63585336  -4.48644261
 N   3.37865058   8.04632905  -5.19628378
 H   3.00507275   8.82639857  -5.71409080
 H   4.20887486   8.25986500  -4.66092976
 C   2.48828349   7.19867085  -4.62718814
 O   4.55780159   3.57697053   0.35613870
 H   4.74870438   4.05277273   1.17453413
