67
69
N         -1.28259       -1.62435       -3.60532
H         -1.29362       -2.54564       -4.04852
H         -1.35896       -0.83516       -4.39721
H         -0.38126       -1.51380       -3.08941
C         -2.41179       -1.48341       -2.64712
H         -2.40956       -2.32866       -1.95477
H         -3.35108       -1.49103       -3.20862
C         -2.22060       -0.14366       -1.92570
O         -1.62536        0.77603       -2.48057
N         -2.68810       -0.07216       -0.66232
H         -3.18159       -0.85527       -0.25262
C         -2.36780        1.08244        0.18942
H         -2.73345        1.98945       -0.29445
C         -0.83942        1.25276        0.29782
C         -3.02428        0.88951        1.56484
H         -4.11248        0.84216        1.41789
H         -2.70912       -0.08427        1.96718
O         -0.32213        2.35492        0.36455
C         -2.70308        1.98295        2.59958
H         -1.61935        1.97404        2.77518
C         -3.08920        3.38178        2.10307
H         -4.14761        3.41838        1.81338
H         -2.93863        4.12089        2.89659
H         -2.47796        3.68768        1.24946
C         -3.40387        1.64841        3.92186
H         -4.49458        1.66451        3.80352
H         -3.11955        0.65582        4.29083
H         -3.14320        2.38019        4.69304
N         -0.14440        0.07562        0.38539
H         -0.63608       -0.77082        0.13386
C          1.28637        0.01776        0.16114
H          1.66323        1.03691        0.28694
C          1.52238       -0.45497       -1.27728
C          1.97343       -0.92328        1.18504
H          1.48357       -1.90363        1.09098
O          0.80358       -1.33809       -1.78269
C          3.46901       -1.10561        0.89749
H          3.99625       -0.14375        0.88993
H          3.92504       -1.72213        1.67793
H          3.65632       -1.59778       -0.06176
C          1.74751       -0.39098        2.60440
H          2.24841        0.57496        2.73987
H          2.15731       -1.08820        3.34201
H          0.68372       -0.25209        2.81601
N          2.55458        0.12362       -1.91100
H          3.14700        0.75463       -1.37956
C          3.16503       -0.36207       -3.13951
H          2.89699       -1.41591       -3.26737
C          4.67452       -0.25490       -2.94399
C          2.72381        0.43539       -4.38472
H          2.89183        1.50218       -4.19133
H          3.36567        0.15149       -5.22551
O          5.19693        0.35242       -2.03536
C          1.25884        0.18160       -4.73544
H          0.64043        0.37524       -3.85412
H          1.14454       -0.88331       -4.98977
C          0.75896        1.04244       -5.89995
H          0.65386        2.08266       -5.56392
H          1.49803        1.05336       -6.71047
C         -0.56404        0.55615       -6.49070
H         -0.91386        1.26990       -7.24641
H         -0.41715       -0.40621       -6.99513
N         -1.59489        0.34811       -5.44002
H         -1.63323        1.14835       -4.80585
H         -2.51563        0.28030       -5.87456
O          5.34450       -0.88771       -3.91865
H          6.29824       -0.75423       -3.75395
