21
conf-102
 N  -0.15520770  -3.70121569   2.96327284
 H   0.86224140  -3.63654942   2.98556171
 H  -0.47975390  -4.08040888   3.85096750
 H  -0.39410637  -4.35672055   2.21980998
 C  -0.74816863  -2.38205555   2.68024905
 H  -0.43260567  -1.67579924   3.45791237
 C  -0.20733604  -1.88484257   1.33478838
 C  -2.27143865  -2.42934120   2.67704975
 H  -2.60694882  -3.16415995   1.94317078
 H  -2.66075895  -1.46171847   2.35926941
 O   0.47290829  -2.60620081   0.62255093
 C  -2.88876585  -2.75809683   4.03299985
 H  -2.57100916  -2.03746680   4.78688581
 H  -2.63160734  -3.77106315   4.35609531
 C  -4.40740849  -2.66080231   3.80930103
 O  -4.95454144  -3.69938307   3.39550094
 O  -4.92266710  -1.55044136   4.03440120
 N  -0.56998080  -0.61288423   1.01587774
 H  -1.03991483  -0.07915661   1.72625213
 C  -0.12006283   0.13196732  -0.16015670
 H  -0.82490216   0.96372486  -0.25342352
 C   1.27682432   0.71098772   0.08500257
 C  -0.15634140  -0.68991140  -1.44997333
 H   0.63456127  -1.43293781  -1.43240888
 H  -1.10396584  -1.22525442  -1.46021745
 O   2.30140720   0.05648170  -0.07627114
 C  -0.04479477   0.17702444  -2.68191886
 C  -1.18093628   0.61476066  -3.36009047
 H  -2.16028900   0.30562049  -3.01957817
 C   1.20375961   0.58406163  -3.15855088
 H   2.09907211   0.26121597  -2.64002696
 C  -1.08820074   1.44450065  -4.48179554
 H  -1.98576188   1.77154724  -4.99479254
 C   1.31553396   1.41650187  -4.27796621
 H   2.29253923   1.72203177  -4.63297825
 O   0.28138495   2.63498496  -6.13704111
 H   1.06955629   3.21858460  -6.04973842
 C   0.16496114   1.83427331  -4.93152235
 N   1.31430168   1.99444049   0.50311474
 H   0.52744663   2.49619612   0.89907656
 C   2.55708324   2.58040639   0.92206378
 H   3.12911596   1.84757606   1.51065589
 C   2.15645667   3.77644802   1.83294784
 C   3.41582322   3.03588979  -0.25938955
 H   3.39738102   2.22739314  -0.99450357
 H   2.95192993   3.90735217  -0.73159658
 O   3.07328120   4.46627349   2.29511811
 C   4.85822936   3.33195428   0.12922317
 H   5.29137602   2.41892423   0.55268743
 H   4.89675763   4.08693162   0.91641493
 C   5.68669090   3.76718631  -1.06399494
 H   5.61975137   3.01244332  -1.85200514
 H   5.27492992   4.69397275  -1.47274523
 C   7.14283067   3.98537202  -0.71625673
 H   7.21298903   4.73697524   0.07357041
 H   7.55642329   3.05724991  -0.31454163
 N   7.94568989   4.41891958  -1.88681986
 H   8.92695724   4.56933568  -1.65023965
 H   7.58549130   5.29098137  -2.27277872
 H   7.91247804   3.72177480  -2.62989439
 O   0.92900865   3.90627746   2.02540764
 H  -0.48208571   3.25517098  -6.17986331
