21
conf-474
 N   0.30654826  -3.21685923   3.44756922
 H   1.10217982  -2.72508545   3.85672299
 H  -0.18472292  -3.74144870   4.16761533
 H   0.68831791  -3.87597180   2.76785175
 C  -0.59229688  -2.26960033   2.76124078
 H  -0.75415822  -1.39687182   3.40639553
 C   0.09798935  -1.77775728   1.48539439
 C  -1.95201799  -2.90163634   2.46169991
 H  -2.58919657  -2.17425334   1.95316373
 H  -2.44234818  -3.14744267   3.40860740
 O   1.11666982  -2.28949047   1.06104736
 C  -1.89253457  -4.16332163   1.60756037
 H  -1.37163072  -4.96494067   2.13699930
 H  -1.39815138  -3.96979170   0.65508757
 C  -3.36533756  -4.56259942   1.37610732
 O  -3.86290809  -5.30007314   2.24531572
 O  -3.90209174  -4.07496495   0.36456256
 N  -0.50857248  -0.73420840   0.86925954
 H  -1.34798318  -0.33940588   1.25700548
 C   0.08327999  -0.09473830  -0.29977437
 H  -0.52674261   0.79897538  -0.46760800
 C   1.52716603   0.36262126  -0.00803825
 C   0.01888338  -0.98370836  -1.55373247
 H   0.80005791  -1.73656875  -1.49733434
 H  -0.93653311  -1.51333233  -1.53339438
 O   2.46577084   0.14743318  -0.75658502
 C   0.13405949  -0.17971231  -2.82337260
 C  -0.88974108   0.68601461  -3.20115313
 H  -1.76605386   0.77027049  -2.56860452
 C   1.26128237  -0.26420816  -3.63762239
 H   2.08438228  -0.90330192  -3.33745400
 C  -0.80918031   1.43715819  -4.37529589
 H  -1.61926092   2.10030446  -4.65983087
 C   1.36874877   0.48736935  -4.81144485
 H   2.25387196   0.40841047  -5.43313543
 O   0.38708225   2.05365924  -6.42744220
 H   1.32369993   2.30265459  -6.60100153
 C   0.32430695   1.32736570  -5.17150206
 N   1.67983546   1.05462082   1.14873679
 H   1.02540441   0.98873332   1.92218904
 C   2.98901854   1.40467872   1.62090358
 H   3.68734783   0.57282911   1.44214584
 C   2.83366126   1.60449749   3.16054190
 C   3.54608836   2.66165273   0.95169916
 H   3.36727448   2.57610013  -0.12002635
 H   2.98364569   3.53280880   1.30122403
 O   3.83529297   1.97359002   3.78671795
 C   5.03756616   2.84166851   1.20640436
 H   5.56403786   1.98713100   0.76503533
 H   5.23146492   2.80526095   2.27917763
 C   5.56928694   4.12454351   0.59254610
 H   5.31336951   4.14582089  -0.47164123
 H   5.07291986   4.98410120   1.05407539
 C   7.07256622   4.28151690   0.72352328
 H   7.55718485   3.38954013   0.31671801
 H   7.41743657   5.13057558   0.13113289
 N   7.50338964   4.46135415   2.13356826
 H   8.51897210   4.47855268   2.22827661
 H   7.15323236   3.70075716   2.71632299
 H   7.13773933   5.32919609   2.52537073
 O   1.70414631   1.33599980   3.62955500
 H  -0.08119793   2.91282179  -6.31789947
