21
conf-451
 N  -0.54984420  -3.23366846   3.14748004
 H   0.35144663  -3.36827909   2.67550847
 H  -0.48194580  -3.43704722   4.14278389
 H  -1.22234115  -3.86850563   2.71610596
 C  -0.95349651  -1.83502609   2.88999288
 H  -0.52887657  -1.18343068   3.66739701
 C  -0.28829133  -1.42760539   1.56749597
 C  -2.46743793  -1.66071770   2.90666771
 H  -2.91478658  -2.20972289   2.07598726
 H  -2.71782022  -0.60497793   2.78811387
 O   0.63865150  -2.08062608   1.11973659
 C  -3.12406205  -2.13136932   4.20010990
 H  -2.74024031  -1.57087541   5.05342296
 H  -2.96635656  -3.20139017   4.35497269
 C  -4.62116340  -1.84176319   4.00762504
 O  -5.00786948  -0.71875835   4.38044227
 O  -5.28336189  -2.74843687   3.46902523
 N  -0.75148476  -0.30245754   0.97865585
 H  -1.55705840   0.16431710   1.36314730
 C  -0.15549586   0.23282501  -0.23936386
 H  -0.65558800   1.19411522  -0.39393049
 C   1.34511432   0.51194913  -0.03811387
 C  -0.39815451  -0.65830125  -1.46749969
 H   0.24423457  -1.53187850  -1.39870449
 H  -1.42961695  -1.01127767  -1.42102593
 O   2.22157000   0.08318492  -0.76958043
 C  -0.17242803   0.08590190  -2.75873132
 C  -1.03500993   1.11181008  -3.13673901
 H  -1.86812753   1.36290220  -2.49047377
 C   0.90202450  -0.21454388  -3.59193802
 H   1.60502261  -0.98414841  -3.29267544
 C  -0.85013940   1.81264212  -4.33039818
 H  -1.53629728   2.60325561  -4.61504452
 C   1.11346400   0.48104650  -4.78622200
 H   1.95553462   0.23285512  -5.42300878
 O   0.38801460   2.16413169  -6.42014181
 H   1.34965348   2.23719797  -6.61836710
 C   0.22667185   1.48641773  -5.14601602
 N   1.63285959   1.28970078   1.03424375
 H   0.99590624   1.45750721   1.80544002
 C   2.99114997   1.56453549   1.40615384
 H   3.60093475   0.65337698   1.31737384
 C   2.92687362   2.00303548   2.90123533
 C   3.63173272   2.65992620   0.54811426
 H   3.40766856   2.43499688  -0.49515518
 H   3.15463443   3.61882901   0.77524501
 O   4.00522240   2.25777579   3.45339058
 C   5.14229754   2.74406985   0.73019639
 H   5.57202042   1.78096181   0.43225928
 H   5.39674215   2.88355076   1.78230462
 C   5.75585061   3.84392493  -0.11372316
 H   5.47620883   3.70400126  -1.16120052
 H   5.35245739   4.81109056   0.19894333
 C   7.26494793   3.88365334  -0.01179393
 H   7.54893746   4.02014680   1.03438800
 H   7.66917987   2.92027266  -0.33166572
 N   7.85943115   4.96738443  -0.83313800
 H   8.87711429   4.99443834  -0.76231896
 H   7.50701920   5.87904843  -0.54355484
 H   7.62325285   4.84965015  -1.81783140
 O   1.78432533   2.03999692   3.40759878
 H   0.08414479   3.09551832  -6.32199556
