21
conf-662
 N  -0.36364295  -2.17367108   3.73603598
 H   0.22994169  -1.42633139   4.10175708
 H  -0.86006322  -2.61779549   4.50632506
 H   0.24134578  -2.86883643   3.29229454
 C  -1.30961867  -1.68045956   2.71113543
 H  -1.82294563  -0.79017673   3.08521688
 C  -0.52481823  -1.32139469   1.45371522
 C  -2.34429918  -2.76150490   2.39664447
 H  -2.81586500  -3.06167844   3.33850319
 H  -1.82066477  -3.63502132   2.00167093
 O   0.38253302  -2.02688914   1.04545010
 C  -3.44874464  -2.36897793   1.41988234
 H  -3.04553300  -2.17676531   0.42238304
 H  -4.00202176  -1.49787040   1.77504374
 C  -4.37865844  -3.59970615   1.36820556
 O  -5.32095927  -3.60111639   2.17954375
 O  -4.06288988  -4.47127944   0.54048068
 N  -0.92197987  -0.18945533   0.82055459
 H  -1.72019242   0.31770203   1.16367744
 C  -0.32389963   0.23865389  -0.43539999
 H  -0.76608914   1.22019366  -0.62769718
 C   1.19427479   0.42308937  -0.27220025
 C  -0.65641566  -0.69834910  -1.60763875
 H  -0.04287747  -1.59088102  -1.53586142
 H  -1.69883391  -1.01287214  -1.49247858
 O   2.02167492  -0.07847073  -1.01466491
 C  -0.47664926  -0.01854003  -2.93988519
 C  -1.34712798   0.99602468  -3.33086416
 H  -2.15195709   1.28298229  -2.66343010
 C   0.56455113  -0.36291130  -3.79871229
 H   1.27437631  -1.12318208  -3.49252042
 C  -1.20370362   1.64236648  -4.56016853
 H  -1.89550254   2.42489291  -4.85346872
 C   0.73355773   0.27796601  -5.02985431
 H   1.54913715  -0.00435444  -5.68663513
 O  -0.04425537   1.89192575  -6.70874376
 H   0.90943488   1.94879734  -6.94671368
 C  -0.16067354   1.27253633  -5.40042059
 N   1.56099864   1.20430566   0.77562530
 H   0.95972058   1.41766479   1.56378592
 C   2.94257203   1.37565077   1.11187735
 H   3.46024070   0.40832387   1.11425478
 C   2.96221870   1.96062016   2.55806209
 C   3.71517950   2.32268452   0.19604155
 H   4.75566139   2.32162460   0.53515569
 H   3.69870349   1.91022745  -0.81226429
 O   4.06456098   2.25855632   3.02481737
 C   3.16842138   3.74621911   0.19628059
 H   3.23936812   4.15433466   1.20763891
 H   2.10769799   3.73328856  -0.06429482
 C   3.91644322   4.62239160  -0.79383920
 H   4.97016552   4.68920897  -0.50664736
 H   3.88456700   4.14317459  -1.77764744
 C   3.34224207   6.01917595  -0.93020677
 H   3.81515257   6.54099390  -1.76389357
 H   2.27687717   5.94121895  -1.16425268
 N   3.50281782   6.82598916   0.30695542
 H   3.09759736   7.75768013   0.21375598
 H   4.48692547   6.93574791   0.55104771
 H   3.04528758   6.37490199   1.09807440
 O   1.84217424   2.03994551   3.11484299
 H  -0.33857214   2.82903968  -6.64060726
