21
conf-549
 N   0.16107251  -3.29629965   3.01197146
 H   1.15434473  -3.28524689   2.77000217
 H   0.04036058  -3.37674323   4.03467598
 H  -0.27009243  -4.08627189   2.53260371
 C  -0.45675892  -2.03536784   2.57551062
 H  -0.15566167  -1.24760548   3.27591307
 C   0.10905902  -1.65093663   1.20306220
 C  -1.98790093  -2.10011522   2.61214063
 H  -2.36832590  -2.67391466   1.76387762
 H  -2.36868960  -1.07758736   2.53942535
 O   1.09890655  -2.19662733   0.75697393
 C  -2.49456025  -2.69898205   3.92454035
 H  -2.38408005  -3.78561291   3.93856655
 H  -3.54408135  -2.44503591   4.08889015
 C  -1.64077340  -2.04236121   5.01046191
 O  -0.74535352  -2.74532813   5.52518913
 O  -1.88453513  -0.85320117   5.24557211
 N  -0.53227281  -0.64511615   0.56360650
 H  -1.36142657  -0.24495019   0.97055877
 C  -0.01353434  -0.06322695  -0.66745517
 H  -0.64245004   0.81478603  -0.84668407
 C   1.43503390   0.42919431  -0.47862327
 C  -0.13074174  -1.01085528  -1.87198996
 H   0.64128226  -1.77143183  -1.79821571
 H  -1.09294997  -1.52015328  -1.79803597
 O   2.34982397   0.15067818  -1.23556766
 C  -0.04577985  -0.27243248  -3.18357649
 C  -1.06601362   0.59508340  -3.56612474
 H  -1.91680576   0.72811066  -2.90785285
 C   1.04819451  -0.42095950  -4.03246409
 H   1.86913260  -1.06220135  -3.73090015
 C  -1.01489748   1.28567424  -4.77859320
 H  -1.82200318   1.95109754  -5.06621893
 C   1.12621774   0.26894330  -5.24597958
 H   1.98565332   0.14047202  -5.89484392
 O   0.11485164   1.77382130  -6.90175426
 H   1.04910328   1.99233848  -7.12263557
 C   0.08546478   1.11225653  -5.60937787
 N   1.62155544   1.22376665   0.60476153
 H   0.99587547   1.23392405   1.40337767
 C   2.93472519   1.66805661   0.97689034
 H   3.65598413   0.84396128   0.86383612
 C   2.82788119   2.04404835   2.48761415
 C   3.41957801   2.85741663   0.14469179
 H   3.19478522   2.64329614  -0.89977179
 H   2.84210005   3.74588610   0.41761515
 O   3.84022397   2.50933899   3.02500047
 C   4.91575316   3.10857338   0.29154891
 H   5.43340641   2.20019778  -0.03499678
 H   5.17511473   3.25446933   1.34212795
 C   5.36969892   4.29832918  -0.53462334
 H   5.12305079   4.13329706  -1.58777640
 H   4.81145651   5.18430812  -0.21440270
 C   6.85107711   4.60212682  -0.40881085
 H   7.08023578   5.55797407  -0.88306322
 H   7.10194556   4.70243020   0.65072325
 N   7.70458777   3.54224930  -1.00517483
 H   8.69891412   3.74663704  -0.90275852
 H   7.50988188   3.42774669  -1.99964059
 H   7.53398033   2.64154411  -0.56022049
 O   1.72227961   1.80736703   3.02498670
 H  -0.33055910   2.64790915  -6.81798211
