21
conf-807
 N  -3.44148897  -0.49666949   4.65250641
 H  -4.16402060  -1.10577246   4.28685208
 H  -2.58001926  -1.03207961   4.61762123
 C  -3.30548690   0.67899216   3.81781158
 H  -4.27262430   1.18317753   3.75928144
 C  -2.87521102   0.37802560   2.35794005
 C  -2.28793263   1.65232320   4.42281464
 H  -1.34535458   1.11530505   4.58989584
 H  -2.08124080   2.47083261   3.72295289
 O  -2.14548462  -0.60478168   2.06001000
 C  -2.71809117   2.26393010   5.75551846
 H  -2.85900045   1.49031302   6.51229869
 H  -3.63492274   2.84520931   5.64347895
 C  -1.54967564   3.18679786   6.13218372
 O  -1.61456004   4.34669680   5.68660585
 O  -0.64415849   2.67123383   6.81442332
 N  -3.29567235   1.32377397   1.45491806
 H  -3.57517605   2.21154363   1.83011477
 C  -2.74188952   1.32485772   0.11081798
 H  -2.83304151   0.29688508  -0.24570898
 C  -1.27887714   1.72264651   0.19657765
 C  -3.50002296   2.29357603  -0.79633055
 H  -2.94433496   2.42379212  -1.72924408
 H  -3.53750232   3.26707404  -0.30762179
 O  -0.93225296   2.77141570   0.72721012
 C  -4.88349365   1.79474459  -1.09477339
 C  -6.05997952   2.24798444  -0.57123879
 H  -6.23993851   3.06097794   0.11570908
 C  -5.21843099   0.69134986  -1.95734438
 C  -6.61008578   0.51744893  -1.89625152
 C  -4.44528061  -0.15900851  -2.75700639
 H  -3.36662182  -0.03382797  -2.82001209
 N  -7.10462135   1.48018270  -1.04613040
 H  -8.06948481   1.60830960  -0.81002676
 C  -6.48360856  -1.32077508  -3.39277803
 H  -6.95516582  -2.11348404  -3.96115978
 C  -7.26807498  -0.49057710  -2.60666079
 H  -8.34357894  -0.61246220  -2.54385571
 C  -5.08820025  -1.15504284  -3.47166556
 H  -4.51082422  -1.82334049  -4.09905902
 N  -0.41447185   0.81006977  -0.29358037
 H  -0.77801382  -0.02694029  -0.71642891
 C   1.01563437   0.84680258  -0.04472008
 H   1.31964770   1.88831761  -0.07036135
 C   1.64637772   0.02025297  -1.14856852
 C   1.43744779   0.23636415   1.30846555
 H   2.53007979   0.24823365   1.34535863
 O   1.38007465  -1.18834550  -1.25025328
 C   0.84028342   0.93107507   2.51301708
 H   0.93337184   2.01331878   2.42838137
 H   1.33451217   0.59053396   3.42305060
 H  -0.21192108   0.67364850   2.58560730
 O   1.04705894  -1.18968015   1.35083106
 H   0.09086924  -1.23564604   1.59354585
 N   2.41490854   0.66177774  -2.03993811
 H   2.77265850   1.57479180  -1.81533740
 C   3.13945046  -0.09273810  -3.05084868
 H   2.47234384  -0.87607501  -3.42156067
 C   4.34439926  -0.81468726  -2.47604336
 C   3.58833067   0.82413415  -4.18972363
 H   4.24846727   0.25713781  -4.85153555
 H   4.19051459   1.62677155  -3.75848390
 O   4.81225991  -1.82325260  -2.94105036
 C   2.42925123   1.41368797  -4.98835262
 H   1.71772130   1.88557804  -4.30696144
 H   2.80428078   2.20027107  -5.64654686
 C   1.70419160   0.38014421  -5.83378469
 H   2.40157273  -0.10881425  -6.52306403
 H   1.29545344  -0.40657110  -5.20026614
 N   0.55767459   0.91541601  -6.59287057
 H  -0.27547451   1.08169130  -6.04596993
 N   1.91372326   1.97010427  -8.17736948
 H   1.99002251   2.32469028  -9.11732789
 H   2.68604566   1.41046371  -7.85604355
 N  -0.40895113   2.31259747  -8.16685139
 H  -1.29652442   1.86280386  -7.98552437
 H  -0.33038913   2.74142498  -9.07717274
 C   0.69746212   1.71530993  -7.65992732
 O   4.88544338  -0.17387331  -1.41551359
 H   5.65348922  -0.69502572  -1.15185399
 H   1.13098197  -1.47890447   0.39050385
