21
conf-662
 N  -4.33385049   1.98297620   4.51363503
 H  -4.66945487   2.68927596   5.15699398
 H  -5.01664759   1.92690781   3.76698773
 C  -3.03046560   2.38826771   3.98317340
 H  -3.06048258   3.39585498   3.52711594
 C  -2.65067834   1.39751406   2.88450509
 C  -1.99314015   2.37605930   5.09636513
 H  -1.96769798   1.38239200   5.54521760
 H  -1.00449099   2.56820849   4.67477142
 O  -2.02590034   0.36797858   3.10311635
 C  -2.25568820   3.41562653   6.18420236
 H  -3.17887251   3.19662220   6.72803602
 H  -2.30098628   4.42055130   5.76108039
 C  -1.05187226   3.30442724   7.14080044
 O  -0.07296248   4.02006983   6.86137599
 O  -1.17618625   2.49034991   8.07460387
 N  -3.13860283   1.68640382   1.64205676
 H  -3.25047533   2.66083033   1.39578060
 C  -2.67470665   0.84925855   0.55151052
 H  -2.86054070  -0.18456852   0.85643578
 C  -1.17065886   1.02375471   0.37372440
 C  -3.48960774   1.11847770  -0.72398316
 H  -4.53271026   0.89314282  -0.48709533
 H  -3.16628655   0.42989202  -1.50936876
 O  -0.55959924   2.02228745   0.71998565
 C  -3.38462432   2.54174128  -1.18324745
 C  -4.18394929   3.57124736  -0.76856627
 H  -5.03853721   3.55815232  -0.11240560
 C  -2.40325089   3.11829164  -2.06883317
 C  -2.65767053   4.50107680  -2.13088248
 C  -1.33469218   2.58635144  -2.80340291
 H  -1.10368954   1.52465850  -2.76960603
 N  -3.74881081   4.75164157  -1.32833743
 H  -4.14756478   5.65334947  -1.15667203
 C  -0.83933390   4.82009173  -3.62113769
 H  -0.21797950   5.46278094  -4.23319695
 C  -1.88640736   5.37344303  -2.90109768
 H  -2.10328425   6.43538085  -2.93171936
 C  -0.56488151   3.44137613  -3.57456210
 H   0.25910298   3.04278473  -4.15168957
 N  -0.55360326  -0.02291118  -0.23664389
 H  -1.04840111  -0.88295611  -0.40051366
 C   0.89134918  -0.12303067  -0.25836023
 H   1.28206770   0.82784786  -0.62880158
 C   1.23560661  -1.25903522  -1.21287081
 C   1.48319240  -0.33029762   1.17097045
 H   1.38550200   0.61876565   1.69287779
 O   0.60277949  -2.30544687  -1.21750186
 C   0.81810059  -1.44192664   1.95897011
 H  -0.22188104  -1.18744632   2.17131081
 H   1.33472712  -1.58270393   2.90780878
 H   0.84114580  -2.37380665   1.39202069
 O   2.93963252  -0.62260697   1.11227102
 H   3.10671103  -1.50780147   0.68453294
 N   2.30465402  -1.04162288  -2.01450912
 H   2.81140726  -0.17953019  -1.92363169
 C   2.90968299  -2.13167755  -2.76095162
 H   2.12400323  -2.88555094  -2.85358064
 C   4.02912686  -2.79668840  -1.98273340
 C   3.36083921  -1.66601652  -4.14454624
 H   4.30430447  -1.12283814  -4.05403026
 H   2.61385228  -0.95469469  -4.50336479
 O   4.99752858  -3.32887452  -2.45993102
 C   3.48909889  -2.78792975  -5.16667829
 H   4.23596102  -3.51305171  -4.84441241
 H   2.53435871  -3.31392138  -5.23633292
 C   3.84817319  -2.24893561  -6.54010038
 H   3.08962532  -1.52523498  -6.85146437
 H   4.80880746  -1.72057856  -6.49587834
 N   3.89784041  -3.35178851  -7.51903986
 H   4.24724699  -4.22479585  -7.15224335
 N   4.31995817  -1.89299071  -9.30036894
 H   4.25106648  -1.74540920  -10.29398662
 H   4.03185929  -1.12532331  -8.71810775
 N   4.42442974  -4.21918063  -9.59943763
 H   3.99759140  -5.08913264  -9.31228540
 H   4.43205482  -4.06783185  -10.59602745
 C   4.19760853  -3.14076781  -8.81169048
 O   3.82539897  -2.75366471  -0.63942950
 H   4.54973649  -3.28374775  -0.26578008
 H   3.44417082   0.03789957   0.59811904
