21
conf-420
 N  -7.56039236  -1.01946454   4.44094562
 H  -7.26012077  -1.08692786   5.41505426
 H  -8.28988726  -1.71159398   4.27884963
 H  -7.95265500  -0.08394877   4.31632407
 C  -6.41940213  -1.20377967   3.52196961
 H  -5.90965058  -2.13885500   3.76521052
 C  -5.44660130  -0.03049042   3.70974339
 C  -6.89548603  -1.29414312   2.07342452
 H  -7.70229360  -2.03397968   2.03191220
 H  -7.31791869  -0.33753829   1.75700612
 O  -5.82087151   1.02786244   4.19268958
 C  -5.81394894  -1.75226574   1.11184163
 N  -6.00606897  -1.44196456  -0.19345319
 H  -5.30296301  -1.73819388  -0.84680548
 H  -6.80398638  -0.92006456  -0.50623203
 O  -4.84254982  -2.39341526   1.48920776
 N  -4.17393163  -0.26528567   3.30956586
 H  -3.95956315  -1.13120803   2.82354078
 C  -3.18883546   0.80253142   3.23105169
 H  -3.69750238   1.74227559   3.45411243
 C  -2.66190233   0.83206857   1.80776419
 C  -2.03795686   0.61441345   4.24001617
 H  -1.64249618  -0.39247067   4.07417980
 O  -2.19707610  -0.17597763   1.27997504
 C  -2.56829970   0.70910658   5.67387242
 H  -3.52424098   0.19005325   5.74981819
 H  -2.78371477   1.76459858   5.87463661
 C  -0.92419602   1.64433391   4.02511294
 H  -1.33821880   2.65729962   4.08607081
 H  -0.15937978   1.55650850   4.79765418
 H  -0.43227448   1.53675137   3.05775553
 C  -1.60843290   0.15853098   6.71891677
 H  -2.02299103   0.27042639   7.72236786
 H  -1.42638707  -0.90608910   6.54754942
 H  -0.64247623   0.66483807   6.69827218
 N  -2.73843124   2.01589001   1.15344136
 H  -2.86534785   2.85332910   1.69607754
 C  -2.10046612   2.17740537  -0.14400102
 H  -2.45812728   1.36099876  -0.77648713
 C  -0.58384990   2.06576578   0.00421655
 C  -2.47733304   3.53040798  -0.72259704
 H  -2.01969437   3.67462197  -1.70371193
 H  -3.56101377   3.60599304  -0.82754951
 H  -2.12619524   4.32192154  -0.05958755
 O   0.02727381   2.70838142   0.86197883
 N   0.02436248   1.24715409  -0.88441888
 H  -0.50978264   0.64331266  -1.49061581
 C   1.44237839   0.99353022  -0.85232620
 H   1.88500330   1.72101822  -0.17866564
 C   1.97807289   1.16719537  -2.26865841
 C   1.73519559  -0.42504562  -0.34344250
 H   2.80849088  -0.62570895  -0.47601831
 O   1.34822019   0.75662158  -3.24531202
 C   1.36129908  -0.58893404   1.11562516
 H   1.88609623   0.14487890   1.73702074
 H   1.61809773  -1.59350704   1.45140805
 H   0.28816378  -0.44778611   1.23758171
 O   0.96935086  -1.37002807  -1.07569006
 H   1.38666378  -1.48420613  -1.94127833
 N   3.16033684   1.80072784  -2.39489532
 H   3.72373741   2.02883106  -1.58750586
 C   3.75314605   2.03981845  -3.70140012
 H   2.95371327   2.37048791  -4.36739431
 C   4.37774159   0.74988407  -4.25483117
 C   4.81168756   3.11891561  -3.54305578
 H   4.32768209   4.05288677  -3.25590978
 H   5.34101353   3.26767757  -4.49084945
 O   5.56661951   0.49096890  -4.10021729
 O   5.71072634   2.77860546  -2.50606113
 H   6.15993558   1.98368015  -2.82322166
 N   3.52720846  -0.06693717  -4.92050162
 H   2.53089404   0.05685732  -4.76817669
 C   3.95034957  -1.39901729  -5.24786526
 H   3.48311957  -1.70342990  -6.18728608
 H   5.03189816  -1.39595844  -5.38030830
 C   3.54652861  -2.39826416  -4.17185889
 O   2.57706668  -2.18836079  -3.44112259
 N   4.26500784  -3.52928057  -4.09791230
 H   5.11028606  -3.64721570  -4.63632460
 C   3.97438806  -4.55716673  -3.12058658
 H   3.89030379  -4.10341550  -2.12969449
 C   5.15547168  -5.50273989  -3.10550414
 C   2.65796875  -5.30029912  -3.38509329
 H   2.48833596  -5.97945743  -2.54719417
 H   1.86190879  -4.55651260  -3.35945625
 O   6.08997403  -5.45117719  -3.86384818
 C   2.60547862  -6.07062729  -4.69454472
 H   2.86193268  -5.41697093  -5.52713607
 H   3.34616132  -6.87579040  -4.68673245
 C   1.21889942  -6.65534277  -4.92429088
 H   0.47957139  -5.84655840  -4.88957807
 H   0.97930632  -7.34219298  -4.10428863
 C   1.08440252  -7.39108183  -6.24341895
 H   1.85728166  -8.16308305  -6.30398985
 H   0.11527020  -7.90833881  -6.27822887
 N   1.28168493  -6.46824355  -7.36726110
 H   0.52017241  -5.79895624  -7.40015982
 H   1.24860186  -6.97372653  -8.24356871
 O   5.04051496  -6.42894229  -2.13489791
 H   5.83064115  -6.98161940  -2.19065932
