21
conf-231
 N  -8.07749013   1.00414337   4.13743444
 H  -7.87871263   0.69696069   5.09064660
 H  -8.99726902   0.65482125   3.83310077
 H  -8.06451212   2.02644555   4.10025629
 C  -7.07517379   0.50679253   3.18415217
 H  -6.85493296  -0.54153202   3.39916362
 C  -5.80441504   1.34405523   3.32821166
 C  -7.59715944   0.62898104   1.75059348
 H  -7.80957309   1.67970745   1.54695415
 H  -6.84627526   0.30574406   1.03090029
 O  -5.86572503   2.54018558   3.59336631
 C  -8.89068845  -0.14487387   1.51685988
 N  -9.02893591  -0.67825587   0.28187688
 H  -9.87580002  -1.17834891   0.07319283
 H  -8.32649471  -0.57891092  -0.42697749
 O  -9.75949126  -0.24210865   2.37086970
 N  -4.64063927   0.68149792   3.11579215
 H  -4.66183071  -0.25221016   2.73231954
 C  -3.36400610   1.36163060   2.93257741
 H  -3.55370977   2.43035224   2.80442819
 C  -2.74990117   0.76399661   1.67288069
 C  -2.43337177   1.18265888   4.15708824
 H  -2.42262311   0.11124016   4.37942917
 O  -2.84330915  -0.42689069   1.42303306
 C  -3.01281396   1.92739085   5.36364121
 H  -4.09687180   1.80582661   5.37921813
 H  -2.83458773   2.99719028   5.20538619
 C  -1.00522767   1.66101963   3.88104458
 H  -1.01040526   2.71437215   3.57526978
 H  -0.39635354   1.59160400   4.78324482
 H  -0.49705421   1.08340494   3.10227112
 C  -2.41962022   1.48924874   6.69639389
 H  -2.84933826   2.06330936   7.51914837
 H  -2.62848725   0.43126277   6.87886136
 H  -1.33703706   1.62100609   6.72697567
 N  -2.08685819   1.63429796   0.85957220
 H  -1.83548156   2.52915938   1.24437751
 C  -1.18643001   1.12493902  -0.16525206
 H  -1.65106528   0.22661603  -0.56694910
 C   0.17071316   0.75186103   0.48363879
 C  -0.96030459   2.17207968  -1.24011572
 H  -0.30997761   1.78034628  -2.02822819
 H  -1.91005410   2.48296412  -1.67496932
 H  -0.46269826   3.03842390  -0.80089105
 O   0.87649507   1.64868224   1.00384431
 N   0.48418754  -0.57486079   0.44646957
 H  -0.21874575  -1.23111225   0.15798734
 C   1.76303449  -1.06832694   0.92975467
 H   2.01596617  -0.45018973   1.79413846
 C   2.79164177  -0.88960220  -0.18764878
 C   1.66001054  -2.52643674   1.35015360
 H   1.40394987  -3.12329041   0.46491367
 O   2.97050324  -1.73916526  -1.06095490
 C   2.94832018  -3.03561294   1.97168910
 H   3.77283704  -2.96562353   1.26152088
 H   2.83378025  -4.07761552   2.27534417
 H   3.18722502  -2.43710816   2.85246638
 O   0.60562151  -2.59439432   2.31371282
 H   0.48198436  -3.51708117   2.54800446
 N   3.47267742   0.27783775  -0.15556883
 H   3.12281663   0.95589148   0.50332631
 C   4.07701695   0.81797169  -1.36167141
 H   3.54267749   0.38787560  -2.21991955
 C   5.55208286   0.40313562  -1.44704468
 C   3.94240866   2.33985100  -1.38450460
 H   4.39316375   2.71593490  -2.30452622
 H   4.49361813   2.76706611  -0.53721478
 O   6.45312977   1.20589463  -1.65501849
 O   2.58017742   2.74379012  -1.39207205
 H   2.27629967   2.80384209  -0.48298021
 N   5.79604079  -0.91836900  -1.25438663
 H   5.01121834  -1.55681178  -1.29666009
 C   7.12707526  -1.42632619  -1.45651933
 H   7.83674387  -0.81128111  -0.89801960
 H   7.17549045  -2.44314913  -1.05711562
 C   7.52841631  -1.44694428  -2.93409501
 O   6.72910063  -1.67123952  -3.82832233
 N   8.84550707  -1.20254009  -3.17552846
 H   9.51093806  -1.18528352  -2.41918216
 C   9.37830695  -1.29420438  -4.51475045
 H   8.67087096  -1.87421525  -5.11316293
 C   10.70224241  -2.02298098  -4.46220625
 C   9.56022601   0.07502589  -5.18639735
 H   10.33663046   0.64490676  -4.67149088
 H   9.91403359  -0.10621029  -6.20138131
 O   11.34625465  -2.22653039  -3.46496589
 C   8.26080173   0.86664398  -5.22539511
 H   7.46528260   0.21072614  -5.57791558
 H   7.98324841   1.17558833  -4.21837911
 C   8.34804781   2.09596108  -6.11740183
 H   8.53779710   1.79092624  -7.15155099
 H   9.19994726   2.71045451  -5.80331878
 C   7.09349066   2.94739289  -6.06380873
 H   6.95189400   3.29890621  -5.02958145
 H   7.22931370   3.83331577  -6.68999686
 N   5.93683704   2.20586261  -6.57919976
 H   5.13920878   2.82407940  -6.65701940
 H   5.67014998   1.48946037  -5.91542106
 O   11.10348883  -2.40407970  -5.69054425
 H   11.95561757  -2.84144305  -5.56826798
