21
conf-746
 N  -7.98096346   1.26909227   5.08984190
 H  -7.72135944   0.96850790   6.03090575
 H  -8.98587157   1.16786204   4.96197513
 H  -7.70241185   2.25324100   5.00332904
 C  -7.19785520   0.55017943   4.06512949
 H  -6.93866508  -0.45164938   4.42041764
 C  -5.91635152   1.37016256   3.85363196
 C  -7.97394454   0.39931889   2.75851981
 H  -8.97764365   0.02536125   2.99487473
 H  -8.10407228   1.37189423   2.27533817
 O  -5.84662025   2.52917131   4.24335758
 C  -7.33462141  -0.58950847   1.79656465
 N  -7.75783037  -0.52355543   0.50983851
 H  -7.36090912  -1.17696430  -0.14217446
 H  -8.43783435   0.14784893   0.20232360
 O  -6.50535096  -1.41233737   2.16202338
 N  -4.91402014   0.75684784   3.19290518
 H  -5.00399835  -0.21731583   2.91883452
 C  -3.64290428   1.43564845   3.00672608
 H  -3.87679142   2.49586836   2.86959830
 C  -3.01498313   0.90078077   1.72976051
 C  -2.74156797   1.34176629   4.25199656
 H  -3.31807435   1.88200668   5.01184284
 O  -2.78096208  -0.30611401   1.58562801
 C  -1.40820006   2.07279102   4.07449302
 H  -0.83649045   1.58651629   3.27774275
 H  -0.83585754   1.92537190   4.99506683
 C  -2.50406091  -0.07764996   4.76496835
 H  -1.76481736  -0.59400989   4.15807521
 H  -2.11748827  -0.03017581   5.78493615
 H  -3.42103046  -0.66797334   4.76754812
 C  -1.53349478   3.56805457   3.81368893
 H  -0.54905746   4.03835534   3.78839385
 H  -2.02102425   3.78609413   2.85965841
 H  -2.11260821   4.05508181   4.60365661
 N  -2.77660027   1.80790669   0.76273655
 H  -2.96713983   2.77868305   0.94757224
 C  -2.33069174   1.44660702  -0.58043325
 H  -2.85731972   0.52692108  -0.84942070
 C  -0.83275703   1.14961339  -0.52688731
 C  -2.65322645   2.56127354  -1.55547168
 H  -2.30212429   2.29820365  -2.55479220
 H  -3.73289013   2.72095268  -1.59185459
 H  -2.15853288   3.48608583  -1.25669512
 O   0.02658592   1.97832773  -0.82657532
 N  -0.51559456  -0.09194120  -0.10043213
 H  -1.27179275  -0.67202375   0.23256673
 C   0.84476889  -0.41169515   0.29141531
 H   1.31339384   0.53286697   0.58902892
 C   1.57413262  -0.99014076  -0.92560108
 C   0.85268856  -1.36164782   1.49382587
 H   0.46814373  -2.33531435   1.16318574
 O   1.95625449  -2.14796551  -0.99568551
 C   2.23193197  -1.50429338   2.10618062
 H   2.93810702  -1.91010929   1.38049105
 H   2.18459905  -2.16555809   2.97178403
 H   2.58200406  -0.52343821   2.43195863
 O   0.01837460  -0.82992683   2.51386651
 H  -0.90276458  -0.88185353   2.23734911
 N   1.70517234  -0.11674266  -1.96004703
 H   1.51001274   0.86032599  -1.79250088
 C   2.55270315  -0.46549829  -3.06680151
 H   2.50702976  -1.54851405  -3.18297233
 C   4.01475133  -0.07486778  -2.78072269
 C   2.06538051   0.18679457  -4.35616436
 H   2.39381298   1.23457075  -4.39260744
 H   0.97149757   0.14810608  -4.37779768
 O   4.34450959   0.65380817  -1.86206771
 O   2.61444349  -0.55834726  -5.44429636
 H   2.56400797  -0.01876278  -6.23795442
 N   4.91221211  -0.61946242  -3.65023409
 H   4.51572840  -0.93947136  -4.52608038
 C   6.23341514  -0.04794631  -3.70028981
 H   6.67349678  -0.11572814  -2.70170291
 H   6.85521130  -0.62850730  -4.38551707
 C   6.19518307   1.42061892  -4.12585513
 O   5.25375486   1.91557872  -4.72978444
 N   7.30288735   2.12702441  -3.77477873
 H   8.05197950   1.66825901  -3.28519599
 C   7.32954599   3.57185674  -3.85684562
 H   6.53572264   3.87471653  -4.53980857
 C   8.64234790   4.06714352  -4.42789428
 C   7.09422067   4.24121307  -2.49192300
 H   7.92941307   4.02132630  -1.82417231
 H   7.08907800   5.32167019  -2.65479229
 O   8.77154730   5.05409866  -5.10246481
 C   5.78555200   3.81310568  -1.84121289
 H   4.95855016   3.98991783  -2.53731602
 H   5.79316437   2.74006661  -1.64921555
 C   5.51719161   4.52630687  -0.52900331
 H   5.45865389   5.60695724  -0.68345190
 H   6.35065788   4.34981197   0.15926831
 C   4.23786805   4.04544367   0.12190032
 H   3.39402833   4.28548483  -0.53225672
 H   4.27390983   2.94985438   0.21943532
 N   4.03579216   4.72958165   1.39904607
 H   4.75353214   4.44731763   2.05572319
 H   3.15357808   4.45419669   1.81178824
 O   9.68615843   3.29720225  -4.03918757
 H   10.47945392   3.69399876  -4.42080115
