82
84
N         -5.35035       -4.12970       -2.47804
H         -5.01282       -5.05329       -2.20960
H         -6.35666       -4.12110       -2.32249
C         -4.70189       -3.11069       -1.64973
H         -5.14536       -2.14669       -1.92575
C         -3.22292       -3.11173       -2.05394
C         -4.85184       -3.32473       -0.12988
H         -5.92406       -3.26852        0.10285
H         -4.54500       -4.35507        0.08775
O         -2.45036       -3.97704       -1.60351
C         -4.08235       -2.38465        0.78411
C         -3.82670       -2.79045        2.10451
H         -4.19169       -3.75750        2.44293
C         -3.60401       -1.13094        0.37446
H         -3.77077       -0.76909       -0.63470
C         -3.11186       -1.97883        2.98690
H         -2.93393       -2.31487        4.00477
C         -2.88493       -0.31542        1.25290
H         -2.53414        0.65333        0.91305
C         -2.62983       -0.73552        2.56036
H         -2.08160       -0.09428        3.24501
N         -2.85088       -2.15712       -2.92951
H         -3.51343       -1.41883       -3.13593
C         -1.47461       -1.85030       -3.27389
H         -0.84444       -2.66654       -2.93123
C         -1.09878       -0.52339       -2.58846
C         -1.28961       -1.71849       -4.78939
H         -1.89140       -0.87493       -5.16003
H         -1.64450       -2.64034       -5.27225
O         -1.92489        0.38391       -2.53259
O          0.10295       -1.50753       -4.98003
H          0.26621       -1.33114       -5.91870
N          0.15517       -0.45729       -2.07438
H          0.80193       -1.20147       -2.30471
C          0.74674        0.78796       -1.60824
H          0.68733        1.55669       -2.38885
C          2.19413        0.53334       -1.21453
C         -0.00637        1.35059       -0.35312
H         -0.00761        0.56809        0.42054
H         -1.03512        1.53072       -0.66654
O          2.63040       -0.59674       -0.93428
O          0.53455        2.56466        0.09762
H          1.26901        2.36343        0.71404
N          2.94697        1.64399       -1.09252
H          2.51822        2.54181       -1.29294
C          4.15253        1.64423       -0.28117
H          4.85929        0.91719       -0.69398
C          3.77325        1.26568        1.17211
C          4.78287        3.05423       -0.25022
H          4.11448        3.72342        0.30214
H          5.74272        3.00799        0.26807
O          2.70954        1.65614        1.66330
C          4.94538        3.63107       -1.64414
O          4.01538        4.00320       -2.32756
O          6.23051        3.66231       -2.03936
N          4.67810        0.53741        1.84971
H          5.48813        0.15409        1.37174
C          4.46475        0.02163        3.19972
H          4.48427        0.84676        3.92102
C          5.64881       -0.89378        3.49444
C          3.11607       -0.73149        3.36971
H          2.33206        0.02711        3.33711
H          3.10593       -1.17794        4.36825
O          6.47765       -1.22354        2.67269
C          2.88468       -1.78049        2.27139
H          3.32842       -2.74545        2.54066
H          3.38823       -1.44991        1.35762
C          1.40240       -1.96885        1.92040
H          0.89479       -2.61658        2.64248
H          0.89194       -0.99538        1.92180
N          1.31477       -2.58027        0.59162
H          1.91278       -2.12822       -0.10626
N         -0.91969       -3.25408        0.77526
H         -1.71431       -3.69232        0.31608
H         -1.15029       -2.54359        1.46062
N          0.31838       -3.79172       -1.10162
H          1.21683       -4.10039       -1.44325
H         -0.54145       -4.15182       -1.51908
C          0.23099       -3.19291        0.10113
O          5.64410       -1.30307        4.77163
H          6.41695       -1.88651        4.89858
H          6.25020        4.04376       -2.93878
