21
conf-102
 N  -5.92000757   0.46761217   6.33040118
 H  -4.92927083   0.46825999   6.58179474
 H  -6.41124454  -0.17769851   6.95039915
 H  -6.29672560   1.40733728   6.47800479
 C  -6.11633054   0.11740361   4.90393801
 H  -5.53887536  -0.78489652   4.67316728
 C  -5.59276109   1.28271643   4.07384973
 C  -7.59241764  -0.15115646   4.57461584
 H  -8.14478458   0.71919262   4.94044996
 O  -5.96930758   2.43137407   4.29240748
 C  -7.84038902  -0.27835804   3.07207457
 H  -7.24687598  -1.09797725   2.65278781
 H  -8.89500780  -0.49287171   2.88502227
 H  -7.58615895   0.63899699   2.53645792
 C  -8.10555791  -1.40457904   5.27933486
 H  -7.56262298  -2.28120386   4.91717534
 H  -7.99680482  -1.36649707   6.36376880
 H  -9.16596323  -1.54791063   5.06156642
 N  -4.72088414   0.97643903   3.08893177
 H  -4.46064684   0.02765718   2.85671552
 C  -4.22775078   1.97771996   2.17557686
 H  -5.04594037   2.64416533   1.87864377
 C  -3.66242916   1.21889166   0.97509761
 C  -3.14197302   2.85357890   2.82802603
 H  -2.30759336   2.21798114   3.15505424
 H  -3.58324132   3.33301135   3.69760640
 O  -3.40839431   0.02832626   1.03669752
 O  -2.70836719   3.87087811   1.94078823
 H  -1.92343559   3.56295792   1.46841470
 N  -3.45027103   1.96759805  -0.14209014
 H  -3.49649359   2.96876888  -0.02128110
 C  -2.53992667   1.49565691  -1.17084325
 H  -2.67815317   0.41696958  -1.22104307
 C  -1.08807061   1.80171319  -0.75450882
 C  -2.84378662   2.16116521  -2.50442680
 H  -2.22790599   1.72220477  -3.29299468
 H  -2.61467864   3.22541882  -2.44309181
 H  -3.89506865   2.03196663  -2.76306525
 O  -0.77051039   2.92897665  -0.34501757
 N  -0.22486318   0.76736657  -0.89675261
 H  -0.49460038  -0.03011873  -1.45537777
 C   1.21074040   0.93487649  -0.80459269
 H   1.45164615   1.99054532  -0.96147896
 C   1.81238498   0.09637235  -1.92796632
 C   1.76426439   0.48685243   0.54805113
 H   1.45579263  -0.54860370   0.71268269
 H   2.85283069   0.47952762   0.48407782
 O   1.18604031  -0.80853589  -2.44926102
 C   1.33481701   1.34048976   1.74226063
 H   0.24251843   1.33999625   1.78284605
 C   1.85880862   0.71422611   3.03114238
 H   2.95105226   0.67272464   3.01532465
 H   1.55341075   1.29365241   3.90537425
 H   1.47856056  -0.30248153   3.15194787
 C   1.80221845   2.78731666   1.60199177
 H   2.89383057   2.83108612   1.54896799
 H   1.48015960   3.37584190   2.46461313
 H   1.38898519   3.25078756   0.70764617
 N   3.08579035   0.42177401  -2.28913066
 H   3.61515480   0.99217249  -1.65486192
 C   3.87653161  -0.53779376  -3.03521117
 H   3.16315598  -1.19194599  -3.54100211
 C   4.68546747  -1.39210575  -2.04065973
 C   4.75312556   0.15091469  -4.09330528
 H   4.08101655   0.70034389  -4.75845269
 H   5.23123205  -0.62925276  -4.69487764
 O   4.50339169  -1.33338992  -0.83484612
 C   5.77881139   1.07798688  -3.50762709
 C   5.46504057   2.40297184  -3.20939677
 H   4.47113201   2.78138399  -3.42733539
 C   7.07442203   0.63494266  -3.22245629
 H   7.34403341  -0.38981637  -3.45505000
 C   6.39483349   3.25447552  -2.62052443
 H   6.14192828   4.27876150  -2.38118950
 C   8.02161349   1.47672121  -2.64090105
 H   9.01467497   1.09982826  -2.42835192
 O   8.54997442   3.66806676  -1.76227146
 H   9.39024947   3.22471424  -1.62250821
 C   7.67523447   2.78979498  -2.33654203
 N   5.58161867  -2.24063067  -2.59402688
 H   5.96233229  -2.10624166  -3.51642914
 C   6.49256060  -2.98569123  -1.76810412
 H   6.81293796  -2.36892977  -0.91447778
 C   7.72752708  -3.25606229  -2.67311060
 C   5.87396155  -4.27919239  -1.24149900
 H   4.87545793  -4.03413472  -0.87932524
 H   5.74785381  -4.98282680  -2.06966125
 O   8.62180772  -3.98210384  -2.22964424
 C   6.68167289  -4.91237423  -0.11593720
 H   6.74148920  -4.19345663   0.70875459
 H   7.70679087  -5.10074284  -0.43947742
 C   6.04478037  -6.19301135   0.38935571
 H   5.01405581  -5.99727976   0.69666398
 H   6.00302714  -6.92368388  -0.42310965
 C   6.79519669  -6.79717766   1.55603757
 H   6.83323301  -6.06997244   2.37063465
 H   7.82616347  -6.99559333   1.25354583
 N   6.17013541  -8.05251552   2.04198764
 H   6.67893995  -8.46116670   2.82658315
 H   5.21248691  -7.88709934   2.34989785
 H   6.13404021  -8.75200940   1.30131155
 O   7.70140797  -2.66807431  -3.77631109
