21
conf-669
 N  -6.72524530  -0.57569083   6.46556010
 H  -6.10774772  -0.24647845   7.20990836
 H  -7.29765534  -1.34093585   6.81588204
 H  -7.34435483   0.19710357   6.21135753
 C  -5.96085742  -0.97679964   5.26703611
 H  -5.06054444  -1.51926387   5.58225685
 C  -5.51582610   0.27984064   4.52309665
 C  -6.77867451  -1.92724625   4.36123987
 H  -6.95207767  -2.81330839   4.98467128
 O  -6.21380163   1.28493740   4.45553279
 C  -8.13170134  -1.34370184   3.96740019
 H  -7.99335665  -0.41709343   3.41093533
 H  -8.68180194  -2.04636700   3.33791442
 H  -8.74353627  -1.12676829   4.84318404
 C  -6.01039363  -2.36473928   3.11359754
 H  -5.93296259  -1.54055433   2.40046778
 H  -4.99927958  -2.70922133   3.34814609
 H  -6.54062233  -3.18242564   2.62003817
 N  -4.28598491   0.19368921   3.94779757
 H  -3.85797891  -0.71615739   3.85919128
 C  -3.85573263   1.10102145   2.90371790
 H  -4.70716144   1.70374172   2.58050648
 C  -3.32524357   0.23615205   1.76466222
 C  -2.77258652   2.04454703   3.42746149
 H  -2.34207582   2.60959369   2.59820162
 H  -1.97297765   1.45174355   3.89061563
 O  -2.98331880  -0.92198245   1.94134781
 O  -3.30551193   2.98859567   4.33667276
 H  -3.63480354   2.50017419   5.09741299
 N  -3.26060135   0.84752867   0.54645647
 H  -3.32854624   1.84972521   0.53974491
 C  -2.40682388   0.30280978  -0.49648041
 H  -2.47860741  -0.78183832  -0.42894799
 C  -0.95344754   0.74256797  -0.24405911
 C  -2.87301171   0.79887896  -1.85841595
 H  -2.25217462   0.38467837  -2.65617447
 H  -2.80571993   1.88843169  -1.90270666
 H  -3.90855481   0.50339311  -2.03114104
 O  -0.68666766   1.82013809   0.27092920
 N  -0.00877960  -0.14023914  -0.66858896
 H  -0.26892894  -0.88235728  -1.30056502
 C   1.38667866   0.23263049  -0.75514690
 H   1.46342721   1.31277826  -0.63143783
 C   1.88462065  -0.16806556  -2.13817833
 C   2.25616403  -0.46152154   0.30219247
 H   2.09009237  -1.53957337   0.21492386
 H   3.31182079  -0.28971376   0.05677792
 O   1.38559781  -1.07993540  -2.76927728
 C   2.00269076  -0.04146413   1.75114414
 H   0.95434365  -0.22790375   1.98708341
 C   2.86117494  -0.90455158   2.66972034
 H   3.91868753  -0.76736908   2.41572320
 H   2.72300672  -0.63452374   3.71871773
 H   2.61373872  -1.96349000   2.56088597
 C   2.29948667   1.43939035   1.97248064
 H   3.34449043   1.65004774   1.72427162
 H   2.14164214   1.70875324   3.01958103
 H   1.66101800   2.07781708   1.36187702
 N   2.97243550   0.53917405  -2.59402121
 H   3.40734469   1.13156118  -1.90412248
 C   3.96324628  -0.15565831  -3.41926693
 H   3.41860656  -0.78419903  -4.12299117
 C   4.82481402  -1.00704385  -2.48259887
 C   4.84916818   0.86857784  -4.14435789
 H   5.34372471   1.45826319  -3.36966722
 H   4.20156575   1.52893753  -4.71786803
 O   5.26586987  -0.48435829  -1.44531085
 C   5.87057900   0.20375276  -5.02596174
 C   7.06543326  -0.25798828  -4.46653697
 H   7.24125348  -0.09825507  -3.40546243
 C   5.64683468  -0.02199195  -6.38358750
 H   4.73622757   0.33929590  -6.84562446
 C   8.00794584  -0.94091625  -5.23312125
 H   8.93084913  -1.31114455  -4.80345937
 C   6.58082904  -0.70365505  -7.16189496
 H   6.38556479  -0.86856704  -8.21616886
 O   8.71142116  -1.84814985  -7.28378062
 H   8.43445230  -1.93311648  -8.19994700
 C   7.75796553  -1.16791579  -6.58378124
 N   5.05771595  -2.28646697  -2.88546431
 H   5.05020233  -2.52562016  -3.87294709
 C   5.93878452  -3.17387534  -2.17444062
 H   6.71940626  -2.60641878  -1.64028370
 C   6.60026870  -4.04326114  -3.27839405
 C   5.23362771  -4.09792388  -1.18369394
 H   4.33276870  -4.50173223  -1.65363495
 H   5.90849528  -4.93551800  -0.98710922
 O   7.40744194  -4.89740545  -2.90181224
 C   4.88240483  -3.39258927   0.11836078
 H   4.39287260  -2.43332328  -0.10378780
 H   5.81445593  -3.13343553   0.63576286
 C   4.01633187  -4.22512804   1.04959473
 H   3.74087154  -3.63215542   1.92757846
 H   3.08077406  -4.49807668   0.54630734
 C   4.69860276  -5.48784482   1.52947525
 H   5.64553538  -5.22365582   2.00570002
 H   4.93284260  -6.12560280   0.67379664
 N   3.85482616  -6.25312190   2.48054275
 H   4.28950140  -7.13185567   2.76274476
 H   3.67620216  -5.71512730   3.32730477
 H   2.95182978  -6.47663026   2.06558751
 O   6.26206206  -3.77214209  -4.46018038
