21
conf-549
 N  -8.46840304   3.22681902   3.70095937
 H  -8.53021322   3.48072954   4.68683386
 H  -9.40337198   3.16370011   3.30473135
 H  -7.96382079   3.97234572   3.21731975
 C  -7.71723755   1.97340742   3.51801707
 H  -8.03427295   1.25515353   4.28353014
 C  -6.22930693   2.27059359   3.72041669
 C  -7.97872578   1.33407485   2.13770944
 H  -7.27060660   0.49958421   2.05245079
 O  -5.77153018   3.39755350   3.58745820
 C  -9.38682648   0.75281315   2.04580256
 H  -10.14610063   1.53605286   2.09041562
 H  -9.51561507   0.22349395   1.09921959
 H  -9.58424264   0.04712220   2.85629513
 C  -7.71355516   2.30432341   0.99074567
 H  -8.47219742   3.09123513   0.97387536
 H  -6.73549763   2.78169366   1.08097856
 H  -7.75703489   1.78030488   0.03366346
 N  -5.46324690   1.19042383   4.02484956
 H  -5.85173753   0.26108086   3.97094757
 C  -4.02033671   1.26066097   4.08739091
 H  -3.71472601   2.22992309   3.69929490
 C  -3.45978670   0.11161950   3.25137360
 C  -3.53089228   1.14295353   5.52331870
 H  -2.43194357   1.12501982   5.53481515
 H  -3.89264051   0.19828721   5.94767120
 O  -4.02579697  -0.96812760   3.18501557
 O  -4.03820266   2.26980760   6.22673277
 H  -3.88983668   2.13714065   7.16591186
 N  -2.28150209   0.35018178   2.63396715
 H  -1.78912179   1.22810434   2.70606217
 C  -1.61306227  -0.67340049   1.86174151
 H  -1.63607721  -1.60927676   2.42375456
 C  -0.17396139  -0.19560790   1.69658250
 C  -2.29456187  -0.90073746   0.51342025
 H  -1.76847577  -1.67166004  -0.05259329
 H  -2.29909879   0.02316872  -0.07050403
 H  -3.32354269  -1.21544525   0.68240630
 O   0.12994845   0.97889828   1.81168662
 N   0.72584894  -1.17384763   1.41088308
 H   0.37471912  -2.06852213   1.12213981
 C   2.10073991  -0.85199444   1.05117764
 H   2.37330497   0.01076757   1.66397257
 C   2.16001721  -0.48727914  -0.43129904
 C   3.01489660  -2.03511022   1.33464664
 H   2.95845750  -2.25473860   2.40292058
 H   2.62045257  -2.90194543   0.79727207
 O   2.04755575  -1.33625066  -1.30624563
 C   4.48064830  -1.83265643   0.93547112
 H   4.50025967  -1.64530071  -0.14550075
 C   5.11464496  -0.64008546   1.64424075
 H   5.10232987  -0.78791632   2.72853994
 H   6.15538347  -0.52600171   1.32841854
 H   4.60338527   0.29707659   1.41354483
 C   5.26552928  -3.11055605   1.22125272
 H   5.24998379  -3.33075773   2.29110441
 H   6.30739208  -3.00776081   0.91065969
 H   4.83755323  -3.96219573   0.68877678
 N   2.29062485   0.83444139  -0.68781338
 H   2.61384113   1.43585846   0.04831853
 C   2.48039955   1.30417893  -2.04076792
 H   2.03827642   0.54839546  -2.69441165
 C   3.98727096   1.38528045  -2.35648492
 C   1.74323410   2.63616135  -2.25398932
 H   0.68197543   2.45154223  -2.06982815
 H   1.84216407   2.92125052  -3.30491956
 O   4.84425426   1.00509488  -1.57704509
 C   2.24740670   3.72097950  -1.34769284
 C   1.69827273   3.93210819  -0.08265471
 H   0.88005188   3.31026044   0.26463881
 C   3.31948655   4.53039953  -1.73681534
 H   3.75700230   4.37741598  -2.71770876
 C   2.20413191   4.91063336   0.76935121
 H   1.78020536   5.06821136   1.75198271
 C   3.83630502   5.51786384  -0.89774634
 H   4.66890683   6.12436600  -1.23278655
 O   3.72313126   6.64851727   1.23673663
 H   4.45598065   7.12199293   0.83548066
 C   3.27195296   5.70388282   0.36005867
 N   4.28264316   1.87186695  -3.59283208
 H   3.66275829   2.51795070  -4.05238058
 C   5.63768549   2.15282936  -3.96567105
 H   6.25690283   2.28631036  -3.06715370
 C   5.59542966   3.50233390  -4.75363135
 C   6.28022541   1.09139195  -4.85900799
 H   5.67476403   0.94129607  -5.75809631
 H   7.24562518   1.49165748  -5.18260856
 O   6.66877730   3.93979156  -5.16958628
 C   6.48089321  -0.23622883  -4.14328764
 H   5.51879035  -0.67703905  -3.89348680
 H   7.00028107  -0.06023559  -3.19619508
 C   7.27530941  -1.22542742  -4.97803707
 H   6.75663538  -1.40577464  -5.92353717
 H   8.25352691  -0.80270924  -5.22396930
 C   7.47330277  -2.54756227  -4.27044058
 H   6.49588415  -2.96713581  -4.02111112
 H   7.99872938  -2.37493519  -3.32838289
 N   8.23482204  -3.52137092  -5.09238170
 H   8.36212217  -4.41543027  -4.61705593
 H   7.75583583  -3.70715440  -5.97288166
 H   9.16052897  -3.16065703  -5.32109297
 O   4.45234238   4.00890887  -4.86002299
