21
conf-34
 N  -7.76426286   0.86335325   5.21571720
 H  -7.36013044   0.01586706   5.62057161
 H  -7.35125752   1.67320691   5.68276245
 H  -8.76623051   0.86145710   5.40856054
 C  -7.48840734   0.94470396   3.75694055
 H  -7.84058703   0.02296901   3.28010613
 C  -5.97742720   1.03905085   3.57577844
 C  -8.19359034   2.12729169   3.09281206
 H  -7.93502396   3.00981395   3.68537889
 O  -5.33613972   2.03938184   3.94069108
 C  -7.69276354   2.34133700   1.66434412
 H  -7.88548042   1.45097031   1.05774476
 H  -6.61971040   2.54348316   1.65126534
 H  -8.20699754   3.18930799   1.20504770
 C  -9.70946820   1.94720936   3.09614130
 H  -9.98253763   1.07257533   2.50030923
 H  -10.12328425   1.81518670   4.09675342
 H  -10.19242727   2.82121541   2.65345164
 N  -5.40323235  -0.05924228   3.03269535
 H  -5.97834509  -0.82572856   2.73477862
 C  -3.96129348  -0.23646078   2.98678609
 H  -3.56215428   0.45524958   3.73495730
 C  -3.44673460   0.18508608   1.60881221
 C  -3.58946179  -1.66909121   3.30896813
 H  -2.50662833  -1.79714362   3.26749671
 H  -3.93804816  -1.92778984   4.31095974
 H  -4.03662572  -2.34992260   2.58296159
 O  -3.09887303  -0.63135132   0.75335067
 N  -3.41078106   1.51418441   1.37703253
 H  -3.80750100   2.14593923   2.05956357
 C  -2.92021778   2.03309633   0.11164207
 H  -3.22231435   1.31713057  -0.65801582
 C  -1.39099253   2.12538279   0.13061363
 C  -3.50914985   3.39501551  -0.18258901
 H  -3.25875800   4.08295931   0.63340206
 H  -3.06273093   3.78390790  -1.10149907
 O  -0.78309288   3.18765101   0.03845868
 O  -4.92023274   3.22916551  -0.32031778
 H  -5.28181482   4.05738990  -0.64466230
 N  -0.74000092   0.94751251   0.28945125
 H  -1.26614149   0.08351535   0.24781545
 C   0.70206947   0.91880766   0.19492561
 H   1.05574220   1.85518571   0.64164525
 C   1.11712919   0.89329174  -1.27335221
 C   1.29489884  -0.25792103   0.94622680
 H   0.85630296  -1.18282940   0.56491534
 H   0.99521715  -0.15626228   1.99240272
 O   1.20091008  -0.14491466  -1.92005922
 C   2.82513229  -0.36364998   0.86103933
 H   3.07134311  -0.72045702  -0.14296714
 C   3.51784429   0.98198441   1.06756620
 H   3.17948736   1.44677722   1.99937366
 H   3.32784653   1.68031226   0.25162076
 H   4.59930553   0.84375148   1.13431241
 C   3.31072608  -1.39569362   1.87557538
 H   3.10989625  -1.04937941   2.89212052
 H   2.80482155  -2.35346602   1.73422390
 H   4.38537438  -1.56518869   1.77894279
 N   1.33043500   2.12468553  -1.80839445
 H   1.49846541   2.90493629  -1.18133587
 C   2.13826026   2.27113521  -2.98447857
 H   2.62874795   1.31554616  -3.22182085
 C   3.22934665   3.32941061  -2.63052733
 C   1.36350370   2.74925839  -4.20952906
 H   2.09974610   3.00660602  -4.97316006
 H   0.81823266   3.66380394  -3.95388423
 O   4.07904517   3.56132130  -3.49294441
 C   0.40265717   1.68237862  -4.71245087
 H   0.97608346   0.79644569  -4.98596284
 H  -0.27739236   1.38269194  -3.91632758
 C  -0.41924426   2.12674048  -5.91389840
 H  -1.06148433   2.96520608  -5.63559575
 H  -1.08888678   1.32457146  -6.23762454
 N   0.37227563   2.59425561  -7.06902859
 H   0.70046124   3.54654299  -6.99138076
 N   1.13541911   0.44961079  -7.57995842
 H   1.54270435  -0.15782895  -8.27266673
 H   0.33798527   0.07637480  -7.09179425
 N   2.09032759   2.32861880  -8.61068547
 H   1.90987394   3.26809324  -8.93868996
 H   2.51621541   1.71826427  -9.29238188
 C   1.18342992   1.78344433  -7.76268823
 O   3.12299806   3.81913019  -1.48236550
