21
conf-746
 N  -8.73947275   3.36387272   1.71274073
 H  -8.85759003   4.06098742   2.44893254
 H  -9.64082639   3.13886873   1.29904080
 H  -8.13545668   3.76712021   0.99090375
 C  -8.04486320   2.15636773   2.21072896
 H  -8.32087275   1.98500755   3.25913839
 C  -6.54607371   2.44151605   2.13230151
 C  -8.45884688   0.90783350   1.40134438
 H  -9.55348249   0.89427880   1.47591039
 O  -6.08626342   3.19750601   1.28731747
 C  -8.08083546   1.02061363  -0.07233613
 H  -6.99576564   1.02276523  -0.18479340
 H  -8.48506023   0.17926341  -0.63881977
 H  -8.46205048   1.94440529  -0.50988634
 C  -7.93306372  -0.39233485   2.00129561
 H  -6.85373636  -0.45163390   1.90423806
 H  -8.19155675  -0.47875661   3.06107476
 H  -8.36750541  -1.24819810   1.47941840
 N  -5.76754850   1.83007492   3.06083824
 H  -6.12894200   1.02579909   3.54713223
 C  -4.32641111   1.88870619   2.94988511
 H  -4.07175370   2.87434435   2.56052815
 C  -3.81472689   0.82039892   1.97159221
 C  -3.70426285   1.71430314   4.31908799
 H  -4.08267090   2.49902262   4.98157687
 H  -2.61308772   1.81092961   4.25000961
 O  -4.50539902  -0.10027467   1.55719273
 O  -4.08860899   0.42093853   4.78372726
 H  -3.55391221   0.20396386   5.55207068
 N  -2.51841811   0.94627241   1.62105231
 H  -1.92153273   1.67979727   1.96957987
 C  -1.87842755   0.00877357   0.72928226
 H  -2.08220536  -1.00912875   1.06779508
 C  -0.38427423   0.30492155   0.83602669
 C  -2.36297645   0.14503205  -0.71787172
 H  -1.75797632  -0.48575770  -1.37460703
 H  -2.25859974   1.17751012  -1.04837896
 H  -3.40833047  -0.14064966  -0.78861100
 O   0.03899191   1.39038576   1.20954723
 N   0.44216847  -0.71198435   0.46185592
 H   0.01461230  -1.44707755  -0.07477177
 C   1.81753322  -0.41697731   0.07652894
 H   2.23369011   0.22376477   0.85177238
 C   1.80824053   0.32684003  -1.25670909
 C   2.59782544  -1.72569716  -0.03854395
 H   2.54634286  -2.22539538   0.93162974
 H   2.06918311  -2.35820463  -0.75655087
 O   1.01913171   0.03461573  -2.14322685
 C   4.06424931  -1.61801746  -0.46223003
 H   4.10797809  -1.10761576  -1.42979001
 C   4.89611444  -0.83008689   0.54294783
 H   4.92315832  -1.35663151   1.50104126
 H   5.92243258  -0.71460773   0.18435006
 H   4.50425610   0.17467277   0.72232754
 C   4.64201545  -3.02000087  -0.64286859
 H   4.59637891  -3.57138704   0.29901224
 H   5.68583661  -2.97563825  -0.96043745
 H   4.08580851  -3.58213861  -1.39578727
 N   2.73966391   1.30942479  -1.37226894
 H   3.50779658   1.33722079  -0.72415157
 C   3.00201734   1.96393200  -2.62648269
 H   2.45290731   1.43006228  -3.40516821
 C   4.50916257   1.88484671  -2.87963662
 C   2.54196344   3.42994467  -2.61306065
 H   2.80970046   3.88877888  -3.57169947
 H   3.10228421   3.95481602  -1.83530115
 O   5.30748110   1.61619482  -1.99443405
 C   1.06226136   3.56597211  -2.37087418
 C   0.53890120   3.44755861  -1.07724567
 H   1.20631096   3.25531579  -0.24562970
 C   0.16790098   3.76994732  -3.42127424
 H   0.54096513   3.86660477  -4.43323839
 C  -0.82778957   3.56169975  -0.83869601
 H  -1.21688557   3.45646288   0.16356686
 C  -1.20653863   3.86655138  -3.19616777
 H  -1.88013423   4.02501230  -4.03055677
 O  -3.04211876   3.82581345  -1.60969929
 H  -3.52620391   3.92197574  -2.43477809
 C  -1.69955833   3.76539748  -1.89915234
 N   4.87757655   2.17332307  -4.14952552
 H   4.26757835   2.65503562  -4.79756178
 C   6.25213259   2.37810058  -4.51225352
 H   6.75790589   3.00446189  -3.76620968
 C   6.19702638   3.16307012  -5.85672415
 C   7.06114184   1.09609061  -4.67777730
 H   8.09505550   1.38202833  -4.89196012
 H   7.05360981   0.58154825  -3.71696817
 O   7.26113841   3.36088868  -6.44375408
 C   6.53800483   0.17141207  -5.77064366
 H   6.62058096   0.66220361  -6.74653237
 H   5.47738877  -0.02480433  -5.61014501
 C   7.29720132  -1.14188434  -5.79263235
 H   8.35885834  -0.94866758  -5.96739255
 H   7.21451349  -1.62628938  -4.81598035
 C   6.78971373  -2.08953704  -6.85650645
 H   6.86946131  -1.60605971  -7.83309895
 H   5.72957907  -2.28800563  -6.68182095
 N   7.53654963  -3.37200547  -6.87611237
 H   7.19722756  -4.00792313  -7.59852754
 H   8.52861617  -3.21270012  -7.04818049
 H   7.45750366  -3.85378797  -5.98117272
 O   5.04801841   3.54305280  -6.18344995
