21
conf-497
 N  -8.72087927   4.06848335   1.09462439
 H  -8.77678813   4.99582817   1.51534780
 H  -9.65618024   3.67844979   1.00400470
 H  -8.32176543   4.17037997   0.15926827
 C  -7.83574942   3.18324627   1.86957827
 H  -8.01914238   3.33467798   2.93971185
 C  -6.38612870   3.56507771   1.57417142
 C  -8.07744404   1.68890779   1.55839156
 H  -7.25858266   1.15121941   2.04568094
 O  -6.05908241   4.13418725   0.54430598
 C  -9.39012202   1.19634455   2.15881233
 H  -10.24840720   1.69360599   1.70249929
 H  -9.50359259   0.12292994   1.99208040
 H  -9.42999087   1.37671652   3.23562619
 C  -8.00786045   1.38862214   0.06322150
 H  -8.87585301   1.80424812  -0.45516608
 H  -7.10752141   1.81118624  -0.38961737
 H  -8.00376566   0.30935455  -0.10310288
 N  -5.47886444   3.20774574   2.52941824
 H  -5.76333176   2.52197216   3.20989726
 C  -4.07687505   3.12682440   2.16435567
 H  -3.86405670   3.96414692   1.50177212
 C  -3.80623677   1.80515942   1.42260403
 C  -3.22091651   3.24056381   3.40635482
 H  -3.43501065   4.19629527   3.89499892
 H  -2.15819721   3.21524691   3.13171589
 O  -4.59255000   0.87076636   1.41760578
 O  -3.57094187   2.14355419   4.24886574
 H  -2.90889174   2.07066147   4.94153803
 N  -2.61272757   1.73782774   0.79609078
 H  -1.95244851   2.50016420   0.78261447
 C  -2.22691187   0.56303264   0.04669146
 H  -2.44079406  -0.32467494   0.64574132
 C  -0.72368808   0.69140950  -0.17796487
 C  -2.97909847   0.44211728  -1.27871124
 H  -2.62525586  -0.42960901  -1.83316780
 H  -2.82159310   1.33352677  -1.89138155
 H  -4.04485015   0.33590600  -1.08834046
 O  -0.15059661   1.76971973  -0.08444319
 N  -0.07591715  -0.45331597  -0.49918138
 H  -0.60766709  -1.27777991  -0.71637811
 C   1.33300945  -0.41001395  -0.84640128
 H   1.75754657   0.35941569  -0.19456109
 C   1.49120195   0.04562791  -2.29349774
 C   2.05072040  -1.72490109  -0.60166356
 H   1.89181849  -2.00762754   0.44150000
 H   1.60388636  -2.49763710  -1.23203478
 O   1.61615395  -0.72256422  -3.23594628
 C   3.55821299  -1.64876325  -0.88368948
 H   3.67926211  -1.39224770  -1.94319292
 C   4.25672456  -0.58073064  -0.05036810
 H   4.15262836  -0.79134018   1.01723522
 H   5.32625271  -0.55871443  -0.29035305
 H   3.86349638   0.42133439  -0.24915458
 C   4.20259466  -3.01145446  -0.65355492
 H   4.11446110  -3.30517130   0.39493023
 H   5.26420404  -2.97603695  -0.90983130
 H   3.73278154  -3.78199874  -1.26823455
 N   1.51761063   1.40529543  -2.45085468
 H   1.41533770   1.94732652  -1.60465002
 C   2.49717460   1.92731408  -3.40376843
 H   2.43695839   1.30291368  -4.29611905
 C   3.89084963   1.80306360  -2.74701400
 C   2.23854344   3.40320093  -3.74085246
 H   2.40890337   3.98194973  -2.82971583
 H   1.19216193   3.51074537  -4.02334050
 O   4.12814293   2.36392228  -1.66069206
 C   3.14437011   3.86666540  -4.85357464
 C   4.50377850   4.11085752  -4.59680156
 H   4.85967533   4.09725917  -3.56798109
 C   2.69405904   3.95933608  -6.16954759
 H   1.65179138   3.77295574  -6.38920927
 C   5.39178848   4.38982176  -5.62843887
 H   6.44968237   4.51024706  -5.43098666
 C   3.56507562   4.29310589  -7.20543321
 H   3.19205729   4.37697077  -8.21970357
 O   5.81536685   4.82977714  -7.90664824
 H   5.35851250   4.88958897  -8.74900186
 C   4.91232134   4.51095831  -6.93290636
 N   4.77507626   1.00223263  -3.41475912
 H   4.53948683   0.76858090  -4.36592021
 C   6.19974940   1.09640578  -3.14077655
 H   6.33843658   1.39640721  -2.09977337
 C   6.74590235   2.25639163  -4.07342926
 C   6.90547514  -0.19650502  -3.46212443
 H   6.49347059  -0.96901215  -2.80363704
 H   6.67274092  -0.48444455  -4.49115910
 O   7.07295388   3.27422058  -3.45531547
 C   8.41430649  -0.11341671  -3.27913546
 H   8.64430832   0.22329477  -2.26334659
 H   8.82460947   0.63701394  -3.96180293
 C   9.08844197  -1.45128938  -3.52383091
 H   8.67062169  -2.20306104  -2.84908683
 H   8.87993605  -1.78450007  -4.54387958
 C   10.58655891  -1.39106351  -3.32502062
 H   10.79883295  -1.07013910  -2.30233968
 H   11.00563642  -0.63447856  -3.99267045
 N   11.24498818  -2.69646009  -3.58080573
 H   12.25620233  -2.65341900  -3.45033310
 H   10.88489373  -3.41549317  -2.95419878
 H   11.07140219  -3.01081079  -4.53488083
 O   6.77724758   1.95194424  -5.26887011
