21
conf-961
 N  -6.78163678   0.26150434   7.21365998
 H  -6.10907747   0.56305056   7.92061007
 H  -7.33814821   1.07387888   6.93621179
 H  -7.40533483  -0.43089603   7.62925111
 C  -6.10017809  -0.26121967   6.01087895
 H  -5.33738096  -0.98835415   6.31579502
 C  -5.40957438   0.90800200   5.31521757
 C  -7.07806450  -0.97588173   5.05539352
 H  -7.91006825  -0.28288435   4.90243196
 O  -5.90140089   2.02648800   5.27582899
 C  -6.46459798  -1.28917926   3.68943470
 H  -5.56705034  -1.90831306   3.79784748
 H  -6.19267208  -0.38855627   3.13235201
 H  -7.18451601  -1.84511273   3.08384627
 C  -7.60270678  -2.27098950   5.67128588
 H  -6.77889169  -2.97763066   5.79609582
 H  -8.07241443  -2.12989010   6.64524902
 H  -8.34460708  -2.72660126   5.01233165
 N  -4.22424660   0.60692871   4.72252645
 H  -3.95267946  -0.35779500   4.60143531
 C  -3.65292468   1.48545833   3.72289969
 H  -4.43252439   2.16709784   3.37703214
 C  -3.19388768   0.58745598   2.57647235
 C  -2.50219600   2.30140520   4.30493341
 H  -2.03265334   2.90689699   3.52639945
 H  -2.87728336   2.95919284   5.09149023
 H  -1.74696808   1.63776104   4.73057484
 O  -3.03226830  -0.61042763   2.72746717
 N  -2.99048357   1.21720765   1.37463238
 H  -2.84248371   2.21339671   1.42529886
 C  -2.15402645   0.56675918   0.37725873
 H  -2.34748314  -0.50401265   0.43398185
 C  -0.67822079   0.87301417   0.64599771
 C  -2.50301663   1.08791194  -1.00822342
 H  -2.27466572   2.16236299  -1.03854415
 H  -1.88234289   0.58569682  -1.75118654
 O  -0.32135971   1.93850682   1.12988974
 O  -3.85596979   0.86074789  -1.35938930
 H  -4.39710866   1.14148647  -0.61430466
 N   0.19486909  -0.09409751   0.24741386
 H  -0.16019630  -0.88156102  -0.27085763
 C   1.57679368   0.24694837  -0.06479707
 H   1.68467527   1.32419644   0.05641668
 C   1.79337983  -0.13822965  -1.52834573
 C   2.56996465  -0.48151711   0.83140840
 H   3.58265587  -0.22611617   0.50267559
 H   2.44817147  -1.55418575   0.67811074
 O   1.45794964  -1.24320592  -1.94227518
 C   2.44252130  -0.16172907   2.32315807
 H   1.41468383  -0.36919008   2.63002116
 C   3.37161106  -1.07246534   3.11992249
 H   4.41161422  -0.90104734   2.82981279
 H   3.13728710  -2.12422465   2.94099340
 H   3.28366608  -0.88525124   4.19281018
 C   2.74833546   1.30470414   2.61311425
 H   3.77246478   1.54126382   2.30794000
 H   2.06845059   1.97550680   2.08755552
 H   2.66186569   1.50836354   3.68365101
 N   2.37610164   0.79404131  -2.31464857
 H   2.82577229   1.63415836  -1.96717875
 C   2.76640164   0.51232596  -3.66749363
 H   3.35614973  -0.41250082  -3.70951890
 C   3.67506476   1.70689874  -4.08712476
 C   1.61200193   0.36950104  -4.65989942
 H   0.98989912  -0.45306092  -4.31140267
 H   2.05168680   0.07758358  -5.61946840
 O   4.08938599   1.72043420  -5.24867025
 C   0.78630184   1.63972638  -4.82691025
 H   0.36181492   1.93601666  -3.86894933
 H   1.43070232   2.46232446  -5.16203427
 C  -0.33861492   1.46866483  -5.83794529
 H   0.05744429   1.05204806  -6.76673653
 H  -0.77243264   2.44210552  -6.09937244
 N  -1.39130432   0.53958095  -5.39100723
 H  -1.58034179  -0.24927957  -5.99032956
 N  -2.30826568   2.05874042  -3.89063114
 H  -3.12732429   2.34774687  -3.37573725
 H  -1.78950563   2.79389404  -4.33886066
 N  -3.27662123  -0.05246547  -4.16110072
 H  -3.07343681  -1.02070025  -4.37077093
 H  -3.69892819   0.07906087  -3.24819230
 C  -2.33322609   0.85528767  -4.49138164
 O   3.91278370   2.52741167  -3.17233200
