21
conf-123
 N  -7.52890038   3.62446548   4.25616134
 H  -7.16215552   3.36921819   5.17554886
 H  -8.53353531   3.78151342   4.34642343
 H  -7.09563186   4.50345533   3.96537088
 C  -7.23180968   2.57275089   3.24953710
 H  -7.60894752   1.61301477   3.62243357
 C  -5.71797041   2.47834181   3.09990075
 C  -7.89488294   2.85294292   1.89779422
 H  -7.62971181   3.88150706   1.63589450
 O  -5.06050787   3.41784790   2.61965185
 C  -7.36779457   1.92505222   0.80316902
 H  -7.51999138   0.87769240   1.08158795
 H  -7.88962101   2.11165560  -0.13794985
 H  -6.29970976   2.08454694   0.63517951
 C  -9.41410098   2.73545792   1.99325525
 H  -9.69361085   1.70649168   2.23360899
 H  -9.84780717   3.38677167   2.75321091
 H  -9.87227192   2.99628920   1.03664259
 N  -5.16897550   1.31466850   3.51819738
 H  -5.74550651   0.66050793   4.01814449
 C  -3.72872335   1.17361523   3.65334233
 H  -3.32406592   2.18919550   3.69779946
 C  -3.14719963   0.46077187   2.43044922
 C  -3.39141831   0.41816268   4.91851390
 H  -2.30355953   0.33309090   5.00716586
 H  -3.80407504  -0.59518195   4.85658649
 O  -2.57931343  -0.62242571   2.50302878
 O  -3.94926486   1.15856220   6.00311110
 H  -3.81445192   0.64989751   6.80627701
 N  -3.33909785   1.08512634   1.24364224
 H  -3.65829709   2.04389280   1.25548157
 C  -2.68893684   0.57981073   0.04919695
 H  -3.02160480  -0.45472462  -0.08650277
 C  -1.16601575   0.56748929   0.23497540
 C  -3.07126043   1.43445711  -1.15059615
 H  -2.64762847   1.03466384  -2.07330111
 H  -2.70027307   2.45082659  -1.00757627
 H  -4.15764650   1.46630314  -1.25068631
 O  -0.56426892   1.45416119   0.82146761
 N  -0.54856180  -0.50838135  -0.32101550
 H  -1.03063322  -1.09586692  -0.98115185
 C   0.88401142  -0.67958439  -0.28880784
 H   1.32235567   0.27293995   0.01269307
 C   1.32279438  -1.04973971  -1.70707636
 C   1.31254054  -1.77382246   0.69358333
 H   0.86258715  -2.71523713   0.37085008
 H   2.39710289  -1.90097606   0.62993742
 O   0.58094835  -1.65317694  -2.46588284
 C   0.93275810  -1.51861002   2.15582313
 H  -0.13987956  -1.33656967   2.20110082
 C   1.23704083  -2.76001515   2.98943380
 H   2.30569521  -2.98772378   2.95971919
 H   0.94779770  -2.60962018   4.03169956
 H   0.69045215  -3.62498367   2.60829697
 C   1.65475213  -0.29779464   2.72066594
 H   2.73801724  -0.44366514   2.66990005
 H   1.38258809  -0.14695179   3.76767230
 H   1.40162298   0.61182522   2.17427665
 N   2.58789159  -0.69994743  -2.03671195
 H   3.23771393  -0.34183835  -1.35362298
 C   3.20523918  -1.11844764  -3.27692165
 H   3.04811882  -2.19532248  -3.41436165
 C   4.70870868  -0.86733568  -3.10263126
 C   2.61321977  -0.43328378  -4.52117869
 H   1.55141848  -0.67502042  -4.52857710
 H   3.06519792  -0.90645771  -5.39843465
 O   5.18430610  -0.50906394  -2.03968666
 C   2.80736713   1.05487229  -4.56161863
 C   1.89724620   1.91102441  -3.93629173
 H   1.03607998   1.49468985  -3.42775175
 C   3.89742709   1.63126237  -5.22260963
 H   4.61155228   0.98354413  -5.72092632
 C   2.07896977   3.29181450  -3.95013013
 H   1.37311144   3.94952305  -3.45941568
 C   4.09036991   3.01171570  -5.24751995
 H   4.94888143   3.42478092  -5.76373280
 O   3.30216108   5.20184709  -4.58821183
 H   4.09342261   5.44807442  -5.07336889
 C   3.17560590   3.84163097  -4.60575070
 N   5.46766444  -1.10645995  -4.19492591
 H   5.09716858  -1.10058712  -5.13141056
 C   6.86502059  -0.76673700  -4.19524466
 H   7.01434325   0.17348727  -3.64061802
 C   7.22072397  -0.52849605  -5.68878176
 C   7.72213151  -1.85429368  -3.55304414
 H   7.23291459  -2.12451398  -2.61635192
 H   7.71471578  -2.74446193  -4.18857520
 O   8.40435339  -0.33081675  -5.98106959
 C   9.14935806  -1.39878402  -3.28032788
 H   9.11256440  -0.54968447  -2.58790353
 H   9.59794425  -1.02770719  -4.20322489
 C   9.99135194  -2.50445251  -2.66747341
 H   9.48850702  -2.88526662  -1.77267680
 H   10.06287399  -3.34085015  -3.36984496
 C   11.38644654  -2.05747560  -2.27356559
 H   11.88592077  -2.84010487  -1.70010192
 H   11.30590407  -1.18412200  -1.62037011
 N   12.22288503  -1.70249679  -3.44868637
 H   13.13525182  -1.33616528  -3.17619970
 H   12.37762597  -2.51069581  -4.05136826
 H   11.76423069  -0.99005119  -4.01626718
 O   6.23829163  -0.52593666  -6.46195045
