21
conf-270
 N  -7.33525701   3.80568150   3.26055310
 H  -7.12285986   4.21923870   4.16767969
 H  -8.27378092   4.06835303   2.97257574
 H  -6.66436471   4.17198462   2.58292879
 C  -7.16148396   2.34233436   3.28660387
 H  -7.47992703   1.95505168   4.26203691
 C  -5.66908326   2.06416964   3.11609914
 C  -7.99373587   1.62528855   2.20414969
 H  -7.72271674   0.56568492   2.27173690
 O  -4.90970869   2.91502508   2.65957505
 C  -9.49172327   1.73116602   2.48018533
 H  -9.85050072   2.75507391   2.35772869
 H  -10.04565225   1.10335607   1.77890876
 H  -9.74090606   1.40544162   3.49335231
 C  -7.66513601   2.11547556   0.79794230
 H  -7.95265611   3.16270018   0.67920289
 H  -6.59734025   2.03329248   0.58003856
 H  -8.21092696   1.53239937   0.05395082
 N  -5.25218280   0.82241371   3.44621604
 H  -5.91828585   0.14725260   3.77780105
 C  -3.85695150   0.43767728   3.34754144
 H  -3.26486896   1.33419084   3.55763708
 C  -3.50472422  -0.02253836   1.93072536
 C  -3.50985928  -0.63525999   4.36461496
 H  -4.12649710  -1.52590147   4.19356890
 H  -3.70872985  -0.25314857   5.36679430
 O  -3.08506702  -1.15796372   1.69190609
 O  -2.12965995  -0.95941378   4.29574284
 H  -2.03090544  -1.35934247   3.42279252
 N  -3.69359664   0.88212085   0.94349154
 H  -3.84526052   1.84731975   1.21481198
 C  -3.02448008   0.66072402  -0.33101742
 H  -3.23248236  -0.37263765  -0.62118883
 C  -1.51158470   0.83891190  -0.14148887
 C  -3.53709341   1.64525851  -1.36970379
 H  -3.12341663   1.41662249  -2.35405502
 H  -3.24038112   2.65931209  -1.09827165
 H  -4.62596914   1.59359649  -1.42229386
 O  -1.05403350   1.78687075   0.49066602
 N  -0.74845916  -0.12666511  -0.70318467
 H  -1.14163429  -0.78486707  -1.35622159
 C   0.68706974  -0.16107909  -0.55646417
 H   0.99524042   0.81165009  -0.17482586
 C   1.29439601  -0.42414792  -1.93104619
 C   1.13990605  -1.26213982   0.41123512
 H   0.84697798  -2.22361971  -0.01913702
 H   2.23081493  -1.25696804   0.46052127
 O   0.70560072  -1.05794256  -2.78630533
 C   0.55809169  -1.16044374   1.82319732
 H  -0.52695916  -1.13706991   1.72735772
 C   0.93471536  -2.39580295   2.63392485
 H   2.02050166  -2.47573552   2.72554064
 H   0.51721428  -2.34560568   3.64171342
 H   0.56384240  -3.30651160   2.15938366
 C   1.00367355   0.10750512   2.54501227
 H   2.08978535   0.10603123   2.67344276
 H   0.54560931   0.15631896   3.53505497
 H   0.72027872   1.00907244   2.00103018
 N   2.55718853   0.07420689  -2.11351427
 H   3.05382954   0.31997907  -1.27300169
 C   3.41402964  -0.51093401  -3.13773380
 H   2.78184429  -0.74445562  -3.99253487
 C   4.04807748  -1.78922607  -2.57849158
 C   4.50424120   0.49883980  -3.53350549
 H   5.14131521   0.65825864  -2.66038319
 H   4.00828264   1.44181791  -3.76106700
 O   4.33504265  -1.89477254  -1.40114039
 C   5.31141733   0.05002030  -4.72298934
 C   6.36711113  -0.85552545  -4.56517145
 H   6.65749480  -1.17079613  -3.56367238
 C   4.98573532   0.46605974  -6.01382331
 H   4.17702098   1.16975548  -6.16081614
 C   7.04541286  -1.36621674  -5.66371497
 H   7.82588248  -2.10318808  -5.53085147
 C   5.69497309   0.00385969  -7.12123993
 H   5.43687927   0.35227801  -8.11435922
 O   7.46335495  -1.40060008  -7.98612686
 H   7.14940623  -1.00308928  -8.80181465
 C   6.73226475  -0.90743651  -6.94345997
 N   4.28812146  -2.76668909  -3.49647698
 H   4.27408480  -2.51540961  -4.47204630
 C   5.13095265  -3.89648689  -3.17113488
 H   5.46966492  -3.78745535  -2.14257167
 C   6.35989564  -3.79829915  -4.15257075
 C   4.42561418  -5.21879589  -3.38611936
 H   3.55287215  -5.24967867  -2.73008776
 H   4.06435647  -5.26525404  -4.41801520
 O   7.42103493  -3.47542468  -3.61748198
 C   5.33829264  -6.40605999  -3.10759002
 H   5.72536896  -6.33200729  -2.08616401
 H   6.20346971  -6.36794750  -3.77795785
 C   4.61715017  -7.73151276  -3.27307565
 H   3.74706606  -7.76238288  -2.61189113
 H   4.24464656  -7.81896060  -4.29718379
 C   5.50633631  -8.91700151  -2.97178483
 H   5.86889570  -8.83972660  -1.94396608
 H   6.38161086  -8.88166035  -3.62470892
 N   4.80442168  -10.21197057  -3.15376284
 H   5.40569344  -11.01136183  -2.95167719
 H   3.99243771  -10.27559234  -2.54065963
 H   4.47011396  -10.31337943  -4.11145650
 O   6.09457113  -4.07400267  -5.32835764
