21
conf-684
 N  -7.54766594   0.87306307   6.56506687
 H  -6.90452049   1.20240521   7.28687065
 H  -8.00501118   1.68835664   6.14933409
 H  -8.26149462   0.29048428   7.00352484
 C  -6.82978587   0.15298179   5.49257421
 H  -6.15908568  -0.58957366   5.94243239
 C  -5.98870413   1.16858323   4.72506928
 C  -7.79499965  -0.59374211   4.54871196
 H  -8.54849465   0.13928762   4.24727684
 O  -6.37367123   2.30953138   4.51432533
 C  -7.11353701  -1.12062887   3.28447576
 H  -6.28310381  -1.78909334   3.53819368
 H  -6.72543604  -0.31921095   2.64996346
 H  -7.83306870  -1.68973326   2.69085283
 C  -8.47695887  -1.75694713   5.26560049
 H  -7.73127687  -2.50729607   5.53862217
 H  -9.00061234  -1.46009464   6.17489395
 H  -9.20784875  -2.22835058   4.60545322
 N  -4.79559613   0.70275468   4.27079844
 H  -4.60129519  -0.28770284   4.28520857
 C  -4.07807291   1.40353911   3.22737141
 H  -4.76884400   2.08696518   2.72859210
 C  -3.59492658   0.33631883   2.24472988
 C  -2.91303500   2.20750267   3.80129024
 H  -2.32340427   2.64583186   2.99159289
 H  -3.29096134   3.00206214   4.44719615
 H  -2.26108286   1.55544856   4.38652358
 O  -3.55615967  -0.84198826   2.54852847
 N  -3.21390951   0.79955975   1.01499660
 H  -3.04462432   1.78970807   0.94988851
 C  -2.29867376   0.00307399   0.22592775
 H  -2.47584172  -1.04510576   0.46621950
 C  -0.85615866   0.38235462   0.57726537
 C  -2.54543211   0.21010847  -1.27040078
 H  -3.59238641  -0.00924941  -1.47778582
 H  -2.34318270   1.25615284  -1.54428801
 O  -0.55907616   1.47514324   1.02389715
 O  -1.77351182  -0.69636758  -2.03663996
 H  -0.89295052  -0.32058023  -2.18536605
 N   0.07218043  -0.58241817   0.31987747
 H  -0.23151527  -1.33923767  -0.27496218
 C   1.46964667  -0.20458801   0.17019817
 H   1.68823265   0.49162451   0.97688583
 C   1.67221863   0.47799151  -1.17869323
 C   2.34735540  -1.45283989   0.26764972
 H   2.07481920  -2.10551094  -0.56617133
 H   2.08597880  -1.97771425   1.18878578
 O   1.12282382   0.04832908  -2.18713045
 C   3.85679429  -1.19894800   0.25068233
 H   4.08305599  -0.56032889  -0.61116686
 C   4.31979072  -0.48961199   1.51869186
 H   4.18065820  -1.13949293   2.38711576
 H   3.76442357   0.43554271   1.70586395
 H   5.38068648  -0.23347555   1.45206340
 C   4.60192791  -2.51882585   0.07235460
 H   4.37545033  -3.19825637   0.89741615
 H   4.31736469  -3.00648419  -0.86182688
 H   5.68137991  -2.35496384   0.05205786
 N   2.47888271   1.57085003  -1.19312199
 H   3.13950410   1.64217031  -0.43093465
 C   3.00814903   2.05195051  -2.45170394
 H   2.26861505   1.89327095  -3.23111425
 C   4.32169902   1.25591305  -2.80029978
 C   3.42350633   3.50964311  -2.35465025
 H   4.11363905   3.61626403  -1.51875360
 H   2.55320063   4.12802146  -2.13069999
 O   4.41483430   0.82377468  -3.95646350
 C   4.08809491   3.96081519  -3.64503708
 H   4.89964241   3.27263640  -3.89619921
 H   3.36144504   3.90384731  -4.46172202
 C   4.63673885   5.38205526  -3.56987920
 H   4.99335549   5.68833138  -4.55334484
 H   5.49372125   5.43544363  -2.89517345
 N   3.62096822   6.37662194  -3.16547065
 H   2.87101559   6.44953376  -3.83991197
 N   4.05592519   6.27363301  -0.86352799
 H   3.68742104   6.17161593   0.06824722
 H   4.93588403   5.82010025  -1.04069737
 N   1.94215781   6.90952203  -1.61198172
 H   1.41269296   7.32828985  -2.36599650
 H   1.78734671   7.36249436  -0.72080643
 C   3.22110129   6.52530110  -1.88957879
 O   5.13026012   1.17146722  -1.85341271
