21
conf-242
 N  -7.55449424   2.99209294   2.66895625
 H  -7.50240971   3.31132672   3.63828896
 H  -6.91425768   3.55461288   2.10238578
 H  -8.50488854   3.14197702   2.32813645
 C  -7.13880431   1.57545583   2.53919705
 H  -7.65111447   0.97436929   3.29894082
 C  -5.64109321   1.53332826   2.78535200
 C  -7.47769329   1.00333900   1.15436825
 H  -7.05946172   1.70546966   0.42848154
 O  -4.89580298   2.32488511   2.20490091
 C  -6.85804778  -0.37324768   0.90785648
 H  -7.20046960  -1.09234805   1.65916187
 H  -5.76585175  -0.34703858   0.92599611
 H  -7.16457810  -0.74380861  -0.07287841
 C  -8.98829677   0.91150988   0.94445618
 H  -9.41861642   0.20574212   1.65926138
 H  -9.50229751   1.86567787   1.06407649
 H  -9.20331477   0.54872830  -0.06281413
 N  -5.18628568   0.59686889   3.63842893
 H  -5.84068006  -0.00185760   4.11418561
 C  -3.78773949   0.52721572   4.03979958
 H  -3.40971367   1.55626586   4.00127437
 C  -2.99477404  -0.31084382   3.02193555
 C  -3.67657100  -0.04418274   5.44249480
 H  -2.63001497  -0.11624388   5.74060811
 H  -4.20138554   0.60236720   6.14834986
 H  -4.10900492  -1.04583820   5.47586863
 O  -2.41940298  -1.34764751   3.31873490
 N  -3.00917870   0.16248234   1.74296039
 H  -3.29869955   1.12068814   1.59064876
 C  -2.04034029  -0.35843652   0.80181273
 H  -1.96534892  -1.43287338   0.96814917
 C  -0.66675857   0.29606396   1.03977337
 C  -2.51996868  -0.11238778  -0.61164642
 H  -1.86254442  -0.62439086  -1.32835133
 H  -3.52973586  -0.52617312  -0.70540301
 O  -0.50778781   1.29051753   1.72309881
 O  -2.51133270   1.29707467  -0.81238541
 H  -2.93177516   1.48813049  -1.65472798
 N   0.35711685  -0.34992381   0.41981112
 H   0.16294745  -1.01200950  -0.31563178
 C   1.68720962   0.20375109   0.36771432
 H   1.63973320   1.26149673   0.64124741
 C   2.17369147   0.07092992  -1.07663342
 C   2.68045471  -0.49985981   1.29833568
 H   3.67845419  -0.09270868   1.10610996
 H   2.71668006  -1.55617569   1.02060931
 O   1.61185038  -0.63873093  -1.89089667
 C   2.37945865  -0.39099257   2.79370318
 H   1.36129121  -0.74388645   2.96285578
 C   3.33036115  -1.29796604   3.56942723
 H   4.36706691  -0.99077869   3.40913549
 H   3.22649524  -2.33633504   3.24753558
 H   3.12511785  -1.25616570   4.64159952
 C   2.47918892   1.04848615   3.29319164
 H   3.49185285   1.43269424   3.14035301
 H   1.77607988   1.70587505   2.78052497
 H   2.25869294   1.09353492   4.36263083
 N   3.28819398   0.80065941  -1.35033156
 H   3.90802901   1.05939420  -0.59036972
 C   4.08412110   0.53337399  -2.51579446
 H   3.89031965  -0.48498518  -2.88705221
 C   5.56693512   0.62030320  -2.02165340
 C   3.88187383   1.52295322  -3.66127376
 H   4.64495753   1.30521741  -4.41305651
 H   4.05455692   2.54229999  -3.31014918
 O   6.45216451   0.39691869  -2.84593583
 C   2.49660061   1.41291973  -4.27887245
 H   2.33177095   0.37933446  -4.60334312
 H   1.73276351   1.62427285  -3.53326404
 C   2.33140941   2.33747115  -5.46789603
 H   1.37624100   2.15144208  -5.97212886
 H   3.12939556   2.14733543  -6.18802607
 N   2.41570020   3.74280019  -5.01252712
 H   1.95863108   3.91693442  -4.12915160
 N   2.58092195   4.58507571  -7.18392568
 H   2.27772410   5.31105056  -7.81460378
 H   2.46240362   3.64493594  -7.52866009
 N   2.19079559   6.02966784  -5.37634331
 H   2.41545978   6.15833013  -4.39727427
 H   2.53209393   6.77935552  -5.96160951
 C   2.38484254   4.77654656  -5.86379739
 O   5.68016884   0.89656491  -0.80436522
