21
conf-126
 N  -7.34261468   3.38779238   3.73861137
 H  -7.53885089   3.16387634   4.71573018
 H  -6.40430788   3.79457803   3.68227432
 H  -8.02215783   4.07135913   3.40641820
 C  -7.31148849   2.16889278   2.89966161
 H  -8.10932591   1.48401013   3.21037939
 C  -5.95590379   1.52550781   3.15911467
 C  -7.50871359   2.48632239   1.40571412
 H  -6.79142644   3.27457155   1.15946780
 O  -4.96343302   2.23024074   3.33730040
 C  -7.24011780   1.28768287   0.49695976
 H  -7.90233094   0.45298427   0.75002842
 H  -6.20532943   0.93987295   0.55442252
 H  -7.43691721   1.56404013  -0.54151275
 C  -8.92328215   2.99804947   1.13067459
 H  -9.64653210   2.20540683   1.33632318
 H  -9.19708202   3.86453872   1.73276950
 H  -9.01990323   3.28350801   0.08118553
 N  -5.90089190   0.18015761   3.16153898
 H  -6.74061517  -0.35329448   3.01433837
 C  -4.67892498  -0.55253172   3.46054290
 H  -4.12109794   0.06080796   4.17723594
 C  -3.82834085  -0.69087534   2.18671644
 C  -5.02386172  -1.90750673   4.05236922
 H  -4.11505856  -2.47522591   4.25588122
 H  -5.57455680  -1.77390403   4.98539594
 H  -5.63124267  -2.47995729   3.34899326
 O  -3.55832904  -1.77075534   1.68189960
 N  -3.42958853   0.48809798   1.62750534
 H  -3.51396452   1.33922819   2.17018860
 C  -2.46357892   0.47158336   0.55992278
 H  -2.52978741  -0.50384249   0.07284887
 C  -1.03783754   0.67072922   1.10013382
 C  -2.76221524   1.56524477  -0.46961993
 H  -3.83267200   1.54768320  -0.69052068
 H  -2.51073575   2.54800282  -0.03799589
 O  -0.79353975   1.40005965   2.04936145
 O  -2.09653681   1.32384344  -1.69369880
 H  -1.16457824   1.55615094  -1.60577612
 N  -0.08995338   0.00536176   0.38245490
 H  -0.36989113  -0.34896720  -0.51887059
 C   1.29889984   0.38545225   0.46460177
 H   1.39166405   1.13071100   1.25731290
 C   1.70401228   1.05235924  -0.85574545
 C   2.21696066  -0.78697714   0.78897491
 H   3.24100559  -0.40735408   0.87390747
 H   2.21052318  -1.48454083  -0.05261892
 O   0.98602609   1.03242128  -1.85211213
 C   1.85643744  -1.53369234   2.07498277
 H   0.87989300  -2.00757340   1.93554405
 C   2.88761181  -2.62762688   2.32848255
 H   3.87386276  -2.18612317   2.49034900
 H   2.95682772  -3.31147768   1.47906705
 H   2.63153306  -3.21572664   3.21312415
 C   1.76003146  -0.58934180   3.26878080
 H   2.70906394  -0.06006873   3.40950680
 H   0.97247782   0.15117799   3.14838296
 H   1.55172946  -1.15148706   4.18314114
 N   2.91013880   1.66941588  -0.80671264
 H   3.60047413   1.37454883  -0.12537524
 C   3.58876398   2.11010792  -1.99197760
 H   3.24312153   1.54988474  -2.87415683
 C   5.09708002   1.77959457  -1.73200957
 C   3.45746304   3.60740845  -2.27048496
 H   4.18152478   3.85471453  -3.04701407
 H   3.73500142   4.17127818  -1.37469397
 O   5.89184077   2.01649396  -2.64081020
 C   2.05253081   3.99899217  -2.70076945
 H   1.76840291   3.43286045  -3.59177737
 H   1.34073455   3.72425247  -1.92192340
 C   1.93401171   5.48220377  -2.98977427
 H   2.26330637   6.04512418  -2.11426558
 H   0.88937480   5.75197586  -3.18312900
 N   2.78697912   5.83706661  -4.14518066
 H   2.79553901   5.14649166  -4.88116425
 N   2.55680608   8.13305282  -3.78975618
 H   2.41642745   9.02815693  -4.23219462
 H   1.91862664   7.92558124  -3.03718036
 N   3.50486217   7.32912007  -5.77976434
 H   4.08410918   6.58059274  -6.14010745
 H   3.92299384   8.24182144  -5.89469625
 C   2.93428038   7.09876911  -4.56819731
 O   5.32405827   1.28516940  -0.60218186
