21
conf-607
 N  -9.41454370   2.52605931   2.71376956
 H  -9.62417938   3.02300264   3.57926077
 H  -10.25950997   2.08272227   2.36156860
 H  -9.09455809   3.21106029   2.02595230
 C  -8.32504917   1.55442349   2.90585711
 H  -8.44751351   1.06154897   3.87679603
 C  -7.00023367   2.31679283   2.91952870
 C  -8.31470561   0.45641055   1.81810871
 H  -7.37812048  -0.09030345   1.96071983
 O  -6.88109012   3.40790497   2.38566956
 C  -9.46792642  -0.52553470   2.00330428
 H  -10.43429473  -0.03600602   1.86708636
 H  -9.40040522  -1.33190876   1.26981620
 H  -9.45601415  -0.97401121   2.99953008
 C  -8.30722594   1.03649063   0.40660412
 H  -9.26454926   1.51286204   0.17988635
 H  -7.52025790   1.78407637   0.28365075
 H  -8.14844324   0.24276129  -0.32595901
 N  -5.97034983   1.68245982   3.55837591
 H  -6.08737217   0.69487901   3.70661167
 C  -4.60791015   2.08126070   3.26831975
 H  -4.64248967   3.11744422   2.93066825
 C  -4.06266029   1.20328706   2.11628548
 C  -3.74148348   2.00491029   4.51557779
 H  -3.47682548   0.96272919   4.73828299
 H  -4.31353035   2.40586166   5.35746279
 O  -4.72827222   0.31869499   1.59654249
 O  -2.57689189   2.79836942   4.27970387
 H  -1.95218685   2.63905702   4.99176127
 N  -2.80648368   1.49161165   1.73146418
 H  -2.26022656   2.17295657   2.24329367
 C  -2.16967958   0.77339438   0.65595615
 H  -2.42616768  -0.28398845   0.74543813
 C  -0.65736967   0.96400924   0.82083920
 C  -2.63355789   1.27479388  -0.71206596
 H  -2.12355686   0.73200279  -1.51072902
 H  -2.41343251   2.33980248  -0.81890019
 H  -3.70653824   1.12943734  -0.81621413
 O  -0.19363853   1.93967045   1.38689932
 N   0.10666286  -0.00977344   0.26214900
 H  -0.30516429  -0.68180776  -0.36787902
 C   1.53968024   0.13476062   0.10845210
 H   1.79430854   1.18372079   0.26331418
 C   1.88574821  -0.28232431  -1.31588812
 C   2.33008906  -0.72847646   1.09604287
 H   2.00565005  -1.76970501   0.97537729
 H   3.38747530  -0.69742197   0.81257302
 O   1.21964727  -1.09607815  -1.92933228
 C   2.18882299  -0.33753168   2.56791726
 H   1.12953650  -0.32744532   2.81778177
 C   2.86094883  -1.39668318   3.43265616
 H   3.91468631  -1.50692707   3.15465040
 H   2.81280582  -1.13632927   4.49149614
 H   2.38034668  -2.37009587   3.30548878
 C   2.76312775   1.04887873   2.84864625
 H   3.82381780   1.08109829   2.58235014
 H   2.67593008   1.28617195   3.91182939
 H   2.23646235   1.82225744   2.28841843
 N   3.00967310   0.30225916  -1.83766390
 H   3.60846404   0.76205443  -1.17074887
 C   3.75899840  -0.38266559  -2.88836435
 H   3.03864977  -0.88673857  -3.53136088
 C   4.68315810  -1.39272463  -2.20559165
 C   4.58357259   0.64425368  -3.67710260
 H   5.28858519   1.09369618  -2.97579587
 H   3.90191843   1.42262367  -4.01804373
 O   5.28470654  -1.07641659  -1.18329338
 C   5.31116324   0.03193364  -4.84149130
 C   6.57781552  -0.52414473  -4.65570771
 H   7.02641157  -0.48717589  -3.66747020
 C   4.74530822  -0.03548084  -6.11486269
 H   3.77378763   0.40796596  -6.29730824
 C   7.25838306  -1.15194393  -5.69681027
 H   8.23416358  -1.59638965  -5.54586444
 C   5.41324112  -0.65994156  -7.16667662
 H   4.95264467  -0.70264398  -8.14791593
 O   7.37256238  -1.85647987  -7.93688180
 H   6.86993420  -1.83296175  -8.75544492
 C   6.66771048  -1.22408858  -6.95417120
 N   4.79089993  -2.60723595  -2.80364913
 H   4.62263533  -2.73121708  -3.79873087
 C   5.74466408  -3.58137520  -2.35185577
 H   6.58347391  -3.08794439  -1.83809719
 C   6.25316447  -4.29123881  -3.64514525
 C   5.17272656  -4.66040010  -1.42680605
 H   4.41167191  -5.24425918  -1.95398586
 H   5.99917708  -5.33881425  -1.20009130
 O   7.15708447  -5.11588120  -3.49962514
 C   4.58665634  -4.08946248  -0.14348422
 H   3.64562849  -3.58126251  -0.36866761
 H   5.25988411  -3.33108243   0.26131057
 C   4.31382129  -5.14525204   0.91275472
 H   3.67507496  -5.92959741   0.49865470
 H   5.24988555  -5.61954968   1.21890048
 C   3.63390099  -4.56046844   2.12743283
 H   2.68289487  -4.11968443   1.82128441
 H   4.24344639  -3.75049821   2.53735109
 N   3.38358471  -5.57208405   3.18029361
 H   2.89683826  -5.17972660   3.98652173
 H   2.81605167  -6.33762244   2.81801200
 H   4.26018845  -5.97324806   3.51218106
 O   5.68028669  -3.94050018  -4.71125157
