21
conf-962
 N  -1.95029983   0.27511395  -4.10533394
 H  -2.88471753   0.06203016  -3.75030571
 H  -1.80424343   1.28449428  -4.03787135
 H  -1.90302848  -0.00306385  -5.08407277
 C  -0.90277184  -0.40524439  -3.30357863
 H  -1.12372215  -1.47544554  -3.21113063
 C  -0.84745323   0.23882325  -1.91900963
 C   0.46369328  -0.29488971  -3.98394374
 H   0.70565674   0.76599522  -4.11465049
 H   0.36514367  -0.74256160  -4.97668724
 O  -0.85479875   1.46214064  -1.78910713
 C   1.59010661  -1.01029523  -3.23101654
 H   2.52856855  -0.93805257  -3.79190264
 H   1.72729956  -0.58251532  -2.23801728
 C   1.14764258  -2.42193959  -3.03870847
 O   0.40750577  -2.80974839  -2.15916968
 O   1.51365755  -3.29707084  -4.02142369
 N  -0.74099838  -0.60070952  -0.86034390
 H  -0.66486183  -1.60455693  -1.00713697
 C  -0.22943678  -0.15950202   0.42543895
 H  -0.70918114   0.79462345   0.64938041
 C   1.27793898   0.04089168   0.31354471
 C  -0.56841957  -1.20666027   1.47052240
 H  -0.11268594  -2.15277102   1.16247983
 H  -1.65208280  -1.35605855   1.45072492
 O   2.07788652  -0.89232412   0.40872502
 C  -0.13987485  -0.80406060   2.90142354
 H   0.24007138   0.22840273   2.87463852
 C  -1.33475298  -0.84116249   3.85386854
 H  -1.76564386  -1.84422689   3.88936233
 H  -1.03684486  -0.56256628   4.86727879
 H  -2.11248271  -0.14493670   3.52945388
 C   0.98294000  -1.70889401   3.41505820
 H   0.62886860  -2.73967655   3.49312675
 H   1.84681238  -1.69082453   2.75021086
 H   1.30771795  -1.38686831   4.40665755
 N   1.65479872   1.29553129   0.01340591
 H   0.95414081   1.99032890  -0.18766292
 C   3.05241380   1.66359149  -0.01059461
 H   3.60476804   0.85297812  -0.50196741
 C   3.60273591   1.73011554   1.40828769
 C   3.25831023   2.97226566  -0.76920733
 H   4.30173668   3.26467834  -0.68903787
 H   2.67201721   3.75393341  -0.28514895
 O   2.97865290   1.53827866   2.41993885
 C   2.86874696   2.85965623  -2.23353987
 H   3.44009882   2.04884022  -2.69960627
 H   1.81095746   2.59818113  -2.32544990
 C   3.13389435   4.14276754  -3.00058650
 H   2.65137723   4.97634750  -2.48930767
 H   2.70760748   4.07645757  -4.00875000
 N   4.56113190   4.40057751  -3.05960132
 H   5.14637204   3.60619919  -3.25728754
 N   4.25553465   6.66018226  -3.60491209
 H   4.61678530   7.42698852  -4.15002125
 H   3.28739226   6.47548987  -3.81291508
 N   6.30886561   5.50585813  -4.02995809
 H   6.59378438   6.41626713  -4.37612927
 C   5.09298132   5.53799420  -3.62602357
 O   4.92225806   2.01857888   1.40253890
 H   5.19861637   2.02935890   2.32691699
 H   1.03686805  -4.12570127  -3.85930079
