21
conf-747
 N  -3.66509939  -0.93058724  -3.30776592
 H  -4.11631110  -1.31495318  -2.47797519
 H  -3.90975585   0.05887271  -3.34611141
 H  -4.04695225  -1.39454172  -4.12958256
 C  -2.20202038  -1.08380917  -3.21052497
 H  -1.95852627  -2.14981055  -3.12552704
 C  -1.72899857  -0.38705215  -1.93206071
 C  -1.47929031  -0.52133527  -4.42564101
 H  -0.40843190  -0.53563665  -4.22959377
 H  -1.75590316   0.52380983  -4.55206763
 O  -2.46498771   0.34072874  -1.28192535
 C  -1.75930532  -1.29081980  -5.70883027
 H  -1.51176613  -2.34855785  -5.59955112
 H  -2.81788511  -1.24531053  -5.98646374
 C  -0.98894924  -0.73905633  -6.87814043
 O  -0.43796818   0.33191484  -6.92127109
 O  -1.00191314  -1.59117332  -7.93027162
 N  -0.43830708  -0.61490003  -1.58568911
 H   0.12413643  -1.28699247  -2.08309791
 C   0.12035537  -0.07007084  -0.35760826
 H  -0.26157771   0.94728728  -0.25145781
 C   1.63098883  -0.08596419  -0.54352212
 C  -0.29469949  -0.89837297   0.86218395
 H   0.07205042  -1.91681925   0.71928666
 H  -1.38434565  -0.94836149   0.86593516
 O   2.20559078  -1.11743968  -0.86596397
 C   0.18818238  -0.37492495   2.21697347
 H   1.28174819  -0.30882232   2.19071200
 C  -0.38202508   1.00333087   2.53309801
 H  -1.47508244   0.95909501   2.55064509
 H  -0.04373456   1.34422974   3.51458959
 H  -0.08645154   1.76012511   1.80248026
 C  -0.19111753  -1.37328893   3.30871222
 H  -1.27700852  -1.48432895   3.35639186
 H   0.24352217  -2.35551665   3.11153571
 H   0.15960191  -1.03950564   4.28778674
 N   2.25384877   1.09383172  -0.29222530
 H   1.67121008   1.89656496  -0.12786422
 C   3.68436880   1.35080980  -0.42733535
 H   3.87626440   2.24822577   0.16834903
 C   4.09744983   1.71643793  -1.84559819
 C   4.56858697   0.21870811   0.11359764
 H   4.50101423  -0.65500391  -0.52835246
 H   4.16928833  -0.06734527   1.08532865
 O   4.94016701   2.54220689  -2.09995898
 C   6.02323267   0.63117711   0.27323744
 H   6.46260001   0.87167790  -0.69918185
 H   6.09152213   1.53598710   0.88507772
 C   6.84035346  -0.46582309   0.93783949
 H   7.90858768  -0.21937378   0.89428657
 H   6.68928408  -1.40037835   0.39548683
 N   6.40583585  -0.64849915   2.31098876
 H   6.24941447   0.19237662   2.84155652
 N   7.36962508  -2.78037259   2.45970237
 H   7.85754650  -3.41813133   3.06861444
 H   7.88383436  -2.60245702   1.61205084
 N   6.82845809  -1.48107091   4.39574565
 H   7.18291522  -2.29943501   4.88003473
 C   6.90833877  -1.63915226   3.12647481
 O   3.45735040   1.00583810  -2.79360761
 H   3.81537520   1.30113631  -3.64013334
 H  -0.50884096  -1.15011617  -8.63465798
