21
conf-538
 N  -2.77979493  -1.14987074  -4.15691441
 H  -3.57236020  -1.39606587  -3.56136075
 H  -2.82529532  -0.14387594  -4.33853101
 H  -2.86606298  -1.64460552  -5.04247925
 C  -1.48791709  -1.44898343  -3.50250464
 H  -1.51956736  -2.45962540  -3.08652370
 C  -1.26052480  -0.43861416  -2.37704263
 C  -0.33924229  -1.34040749  -4.51275699
 H  -0.27329439  -0.29512343  -4.82295770
 H  -0.60045947  -1.92195613  -5.39989903
 O  -1.58000221   0.73980204  -2.51124047
 C   1.00835798  -1.81091811  -3.97133902
 H   1.18810460  -1.43730884  -2.95921545
 H   1.06888420  -2.89948803  -3.91638719
 C   2.17344803  -1.28343311  -4.75945981
 O   2.14711926  -0.26320658  -5.40370948
 O   3.27517837  -2.02007820  -4.59343836
 N  -0.65494114  -0.91821102  -1.25714364
 H  -0.31417864  -1.86648333  -1.25872432
 C  -0.06353623  -0.01909211  -0.28653944
 H  -0.41000624   0.97845777  -0.54471413
 C   1.48638412  -0.01236248  -0.39680217
 C  -0.45968422  -0.36718155   1.14414133
 H  -0.05800247   0.40885468   1.80322602
 H   0.06029121  -1.29366185   1.40380404
 O   2.14223010  -1.01869587  -0.71318946
 C  -1.96573294  -0.49332141   1.39085689
 H  -2.34084167  -1.35075872   0.82476641
 C  -2.21924812  -0.75751289   2.87076865
 H  -1.86034521   0.08265686   3.47045632
 H  -3.28516080  -0.88683267   3.07381018
 H  -1.70074602  -1.65934924   3.20583189
 C  -2.71187181   0.75080512   0.92248426
 H  -2.37054077   1.62962314   1.48040407
 H  -2.56532730   0.94528062  -0.13870888
 H  -3.78567643   0.64274869   1.09782528
 N   2.01975826   1.20650125  -0.04736187
 H   1.39659124   1.88110837   0.36045295
 C   3.44230142   1.41952957   0.10100810
 H   3.94280176   0.48441455  -0.15645842
 C   3.82130736   1.70938986   1.53768149
 C   3.97859738   2.52729597  -0.80994527
 H   5.06280348   2.56251753  -0.67498901
 H   3.59609031   3.49763613  -0.48316212
 O   4.90185481   1.47963219   2.01275904
 C   3.64820261   2.31724393  -2.28381363
 H   2.57522088   2.46669777  -2.44812180
 H   4.16690141   3.07132342  -2.88193239
 C   4.00401232   0.93432743  -2.80528528
 H   3.76496650   0.85538073  -3.86294799
 H   3.40932438   0.18087763  -2.29150925
 N   5.41528058   0.63514465  -2.64364249
 H   5.71954931   0.45664723  -1.70303847
 N   7.45104600  -0.23366654  -3.22351375
 H   8.03627233  -0.58099731  -3.96757075
 H   7.86996158   0.56073889  -2.76107582
 N   5.60695223  -0.39241953  -4.72405833
 H   6.32694089  -0.71730166  -5.36846581
 C   6.13234214  -0.01498876  -3.61060547
 O   2.82007553   2.30155528   2.23065796
 H   3.16253570   2.46479079   3.12000797
 H   4.05499065  -1.46364935  -4.85657710
