21
conf-774
 N  -0.23955016  -1.07305341  -4.04665738
 H   0.49079901  -0.37363051  -4.18978150
 H   0.22770688  -1.94998117  -3.81150042
 H  -0.75510077  -1.19378538  -4.91615893
 C  -1.12988420  -0.69061596  -2.93129410
 H  -1.52503731   0.30994910  -3.12625047
 C  -0.30141108  -0.67367921  -1.64395470
 C  -2.29728268  -1.67224808  -2.83358326
 H  -1.88672147  -2.66611500  -2.62930482
 H  -2.76399583  -1.71108747  -3.82322920
 O   0.69325747  -1.36871265  -1.52578955
 C  -3.37696581  -1.34244212  -1.80004408
 H  -4.14588704  -2.11778124  -1.84315094
 H  -2.97285898  -1.32999366  -0.78697987
 C  -4.05054595  -0.04446238  -2.13196992
 O  -4.78540975   0.13776834  -3.06957923
 O  -3.72793399   0.95101438  -1.26835782
 N  -0.74780929   0.15500899  -0.67141114
 H  -1.66019588   0.58770631  -0.78117842
 C  -0.14244102   0.18379204   0.65279177
 H  -0.70680003   0.96279938   1.17671085
 C   1.31480821   0.65425407   0.57280930
 C  -0.30875574  -1.12771285   1.42564538
 H   0.27919311  -1.90620867   0.94574447
 H  -1.36060484  -1.42265188   1.32980339
 O   2.24118328   0.11439867   1.15565942
 C   0.02523002  -1.07242695   2.92287823
 H   1.10946631  -1.03184554   3.03638055
 C  -0.57289505   0.15604540   3.60461695
 H  -1.63790516   0.24506595   3.36686346
 H  -0.47561308   0.07322619   4.68978955
 H  -0.07162457   1.07859528   3.30305627
 C  -0.47473778  -2.35756609   3.58125872
 H  -1.56486620  -2.41129877   3.52973494
 H  -0.06544119  -3.23764643   3.07958624
 H  -0.18223185  -2.40393164   4.63273323
 N   1.50507293   1.76208664  -0.19731207
 H   0.69606421   2.23375058  -0.55132271
 C   2.70837198   2.54468596  -0.00676725
 H   3.55281551   1.84800614   0.02129599
 C   2.66944076   3.24230976   1.34429874
 C   2.89890424   3.54995723  -1.14073617
 H   3.77206121   4.16432818  -0.91727197
 H   2.03688412   4.21928581  -1.16529660
 O   1.73261531   3.24632731   2.10239320
 C   3.08241991   2.86541650  -2.48478694
 H   3.93476964   2.18379949  -2.42780869
 H   2.21435662   2.25210495  -2.71637154
 C   3.29724602   3.86428900  -3.61498713
 H   4.14394212   4.52178459  -3.40239355
 H   2.41281934   4.50378331  -3.69873298
 N   3.49374273   3.26054413  -4.91565950
 H   2.66834735   2.89760356  -5.36628702
 N   5.76442045   2.81919510  -4.54779735
 H   6.50011095   2.14185646  -4.66632139
 H   5.64561757   3.08561136  -3.58521101
 N   4.47940874   1.62638402  -6.17250806
 H   5.36819088   1.16585594  -6.34004832
 C   4.59301622   2.49427234  -5.23551766
 O   3.83310151   3.87104276   1.60519611
 H   3.73085794   4.27941937   2.47281333
 H  -4.21464606   1.73627492  -1.54670394
