21
conf-497
 N  -3.08421293  -1.66623406  -4.08456541
 H  -3.82104809  -1.56156986  -3.38862491
 H  -3.09425891  -0.83562528  -4.67085612
 H  -3.29003949  -2.48940438  -4.65042690
 C  -1.77713029  -1.81439439  -3.43239517
 H  -1.71826919  -2.80501788  -2.97766636
 C  -1.65342234  -0.77367302  -2.31519346
 C  -0.60856661  -1.68749136  -4.41485052
 H   0.30642645  -1.96197706  -3.88315346
 H  -0.50139047  -0.64337718  -4.71760482
 O  -2.48691540   0.10835333  -2.14988251
 C  -0.74382469  -2.55712612  -5.66698802
 H  -1.50979080  -2.14588895  -6.32953714
 H   0.20160938  -2.58627973  -6.20987366
 C  -1.16125776  -3.93405404  -5.26202371
 O  -2.31417231  -4.28999276  -5.21719834
 O  -0.13731567  -4.72136502  -4.86496977
 N  -0.56308735  -0.93137550  -1.52197477
 H   0.20585775  -1.49701746  -1.85200357
 C  -0.12682139   0.09115854  -0.59804622
 H  -0.67939946   1.01106727  -0.80000911
 C   1.36145847   0.29300324  -0.87786146
 C  -0.33422980  -0.31858626   0.86043038
 H   0.13698941   0.42788730   1.50231492
 H   0.20156586  -1.25693143   1.02751342
 O   2.02220033  -0.55037757  -1.45652852
 C  -1.79328154  -0.49727576   1.28602021
 H  -2.25589541  -1.22339013   0.61621650
 C  -1.84116545  -1.06001980   2.70366003
 H  -1.37236873  -0.36459648   3.40465373
 H  -2.87160738  -1.22559512   3.02648795
 H  -1.31240207  -2.01389455   2.76301930
 C  -2.57944768   0.80824913   1.19967434
 H  -2.12831890   1.56515639   1.84874100
 H  -2.61250173   1.19804737   0.18200147
 H  -3.60904094   0.65249313   1.53252674
 N   1.88998139   1.46915634  -0.42629318
 H   1.33779930   1.99540876   0.22784358
 C   3.32922622   1.60041272  -0.24864805
 H   3.81835155   1.05258411  -1.05457193
 C   3.72137163   0.99725121   1.08564894
 C   3.71810987   3.08226354  -0.30212506
 H   3.25001018   3.60316500   0.53675600
 H   3.27945323   3.49536134  -1.20787429
 O   3.01696628   0.97700664   2.06564409
 C   5.21802130   3.33318687  -0.30026049
 H   5.66190042   2.97255938   0.63239750
 H   5.68496266   2.76048502  -1.10724144
 C   5.57308129   4.81059956  -0.44740408
 H   6.65215099   4.93395881  -0.32041052
 H   5.07629094   5.39095458   0.33140128
 N   5.19723783   5.39880693  -1.72034864
 H   5.50755148   4.90932669  -2.54072846
 N   3.81906662   6.43830816  -3.22836581
 H   3.03903846   7.06580783  -3.35424105
 H   4.65448382   6.80443142  -3.66325735
 N   3.23128641   6.33300144  -0.90237400
 H   2.43967730   6.88666043  -1.22200416
 C   4.01775681   6.08676299  -1.88142571
 O   4.97924727   0.51244019   1.07031108
 H   5.15819342   0.18990501   1.96170499
 H  -0.52341230  -5.56252166  -4.58916727
