21
conf-684
 N  -3.13846306  -0.75385182  -4.03562201
 H  -3.91464401  -1.04688316  -3.44204020
 H  -3.22494791   0.25424681  -4.16733567
 H  -3.23473275  -1.20920478  -4.94152100
 C  -1.84897482  -1.06688333  -3.39572111
 H  -1.80316398  -2.14211917  -3.19098760
 C  -1.76816509  -0.33326848  -2.05578980
 C  -0.66082431  -0.68823542  -4.27245680
 H   0.25329370  -0.75938276  -3.67941020
 H  -0.75545112   0.35791984  -4.55998365
 O  -2.57450075   0.53019837  -1.73470526
 C  -0.52430282  -1.55544474  -5.51492337
 H  -0.44719653  -2.61371665  -5.25712538
 H  -1.39558571  -1.45886255  -6.17201958
 C   0.67485837  -1.17424144  -6.33995049
 O   1.29278877  -0.14275250  -6.25531427
 O   0.98383231  -2.13291767  -7.24441196
 N  -0.74586770  -0.73892508  -1.25421984
 H   0.00897958  -1.26805842  -1.66598941
 C  -0.29967648   0.06358184  -0.13605279
 H  -0.82429967   1.02047228  -0.16036877
 C   1.19770696   0.28424188  -0.34921231
 C  -0.55580839  -0.62353458   1.20393300
 H  -0.08252213  -0.03889242   1.99480599
 H  -0.05250264  -1.59446360   1.19079550
 O   1.84871614  -0.42307052  -1.09599756
 C  -2.03352132  -0.83243440   1.54605395
 H  -2.49586174  -1.38461886   0.72615822
 C  -2.14754192  -1.67430029   2.81347306
 H  -1.68376312  -1.15640275   3.65699670
 H  -3.19316020  -1.86573087   3.06552421
 H  -1.64953717  -2.63839361   2.68884558
 C  -2.77547970   0.49106940   1.71262458
 H  -2.32175218   1.08059011   2.51534742
 H  -2.76453631   1.08473861   0.79809634
 H  -3.81937108   0.30870605   1.98145739
 N   1.74734392   1.31651295   0.35570218
 H   1.20185721   1.69931839   1.10703868
 C   3.18895526   1.37621106   0.55099046
 H   3.66613852   1.05694960  -0.37621647
 C   3.57907089   0.43359353   1.67216858
 C   3.59944714   2.81388223   0.89179474
 H   3.15616844   3.09009602   1.85144879
 H   3.15561051   3.46703294   0.13336367
 O   2.87736436   0.15340929   2.61325783
 C   5.10312683   3.03606762   0.92253135
 H   5.57053104   2.41641421   1.69280905
 H   5.53126047   2.71790539  -0.03376997
 C   5.48150265   4.49337768   1.19012236
 H   6.56901520   4.59748181   1.16317156
 H   5.14698713   4.78607353   2.18450697
 N   4.92645687   5.44171001   0.22388735
 H   5.02545753   5.12750287  -0.73183721
 N   3.36782954   6.38833184   1.67833966
 H   2.50082561   6.89768327   1.74994638
 H   4.14079672   6.86748876   2.11833745
 N   2.84711645   5.94927832  -0.61626608
 H   1.97710425   6.41679661  -0.37130283
 C   3.64434629   5.93973839   0.38457573
 O   4.83336069  -0.03729130   1.51918723
 H   5.01314790  -0.59152533   2.28799089
 H   1.74226946  -1.79581992  -7.73954287
