21
conf-448
 N  -3.37186630  -0.58949765  -3.72434643
 H  -4.05521282  -1.01544115  -3.09805682
 H  -3.56322612   0.41269199  -3.74211844
 H  -3.51002043  -0.96474173  -4.66097810
 C  -2.00112766  -0.82763459  -3.23957248
 H  -1.83907514  -1.90744463  -3.14307997
 C  -1.85436216  -0.20960086  -1.84618116
 C  -0.94961021  -0.26812142  -4.18832510
 H   0.02839930  -0.33206773  -3.71237014
 H  -1.14361063   0.79311321  -4.34409484
 O  -2.70283728   0.53672229  -1.37344778
 C  -0.89193610  -0.99806770  -5.52257535
 H  -0.82333980  -2.07842722  -5.36543891
 H  -1.78405421  -0.82450690  -6.13081442
 C   0.31542829  -0.60417922  -6.32866088
 O   1.28489409  -0.02068667  -5.91226480
 O   0.21765102  -1.01642003  -7.61407814
 N  -0.72760111  -0.57663115  -1.18020675
 H   0.03537353  -0.99435303  -1.69187359
 C  -0.30506674   0.08880367   0.02982323
 H  -0.90847891   0.98970422   0.15768695
 C   1.16386385   0.47837051  -0.17771185
 C  -0.44999600  -0.79672002   1.26599702
 H   0.00665587  -0.28511306   2.11589596
 H   0.12778407  -1.70954992   1.10153838
 O   1.84633265  -0.03745321  -1.04844320
 C  -1.88821629  -1.17841621   1.62586454
 H  -2.34660599  -1.64017910   0.75057505
 C  -1.87554235  -2.20795839   2.75235738
 H  -1.41122587  -1.78783111   3.64839017
 H  -2.89028199  -2.51990682   3.01013219
 H  -1.31363851  -3.09807094   2.46115454
 C  -2.71995716   0.03921416   2.02054428
 H  -2.27885615   0.53136537   2.89259452
 H  -2.78936925   0.76592072   1.21074767
 H  -3.73569075  -0.26539156   2.28599490
 N   1.63581349   1.41887457   0.67808430
 H   1.04682583   1.73315725   1.42853210
 C   3.04457224   1.72636481   0.73919161
 H   3.56224577   1.00532981   0.09846933
 C   3.61938651   1.50051376   2.12251720
 C   3.37198344   3.13469064   0.24111329
 H   4.43993199   3.30122145   0.39139131
 H   2.84917960   3.86695331   0.86027591
 O   4.70518437   1.88675575   2.47152928
 C   3.00328425   3.36126130  -1.22237841
 H   1.94850675   3.11590684  -1.38294041
 H   3.11469061   4.42364643  -1.45149715
 C   3.84061858   2.54888619  -2.20738269
 H   3.46485790   2.71345784  -3.22250737
 H   3.75907026   1.48292517  -1.99232355
 N   5.24994821   2.91125540  -2.16793015
 H   5.57250307   3.49341875  -2.91717533
 N   7.49423285   2.48927112  -1.88688020
 H   8.17696791   1.94491263  -1.38143270
 H   7.60154771   3.47419796  -1.69064690
 N   5.83949112   0.93621860  -1.11219090
 H   6.67069403   0.44053102  -0.79290750
 C   6.18654284   2.03125098  -1.68341449
 O   2.81316320   0.77258420   2.92182856
 H   3.29061717   0.65529943   3.75405528
 H   1.03981386  -0.74389930  -8.04312437
