21
conf-365
 N  -2.28165319   1.32947588  -3.95086163
 H  -2.98231339   1.26885382  -3.20854112
 H  -1.76961123   2.20673635  -3.83254152
 H  -2.76256383   1.35398072  -4.84906146
 C  -1.31216782   0.20468249  -3.88771552
 H  -1.86092825  -0.74237157  -3.86014758
 C  -0.48150413   0.36892459  -2.62570026
 C  -0.39114003   0.22063109  -5.09643908
 H   0.09137314   1.19652182  -5.13554538
 H  -1.00233964   0.12310498  -5.99390220
 O   0.27611269   1.32019518  -2.49606835
 C   0.66408801  -0.87598562  -5.04148285
 H   1.33147850  -0.71974188  -4.19748956
 H   0.18802950  -1.85119124  -4.88709353
 C   1.50765734  -1.01072482  -6.26737344
 O   2.58253684  -1.58366890  -6.28757899
 O   0.97978448  -0.48131777  -7.37169004
 N  -0.62686474  -0.58710602  -1.67335214
 H  -1.42215294  -1.20230062  -1.69746307
 C   0.03184733  -0.41161463  -0.38621418
 H  -0.06772808   0.63504393  -0.09076521
 C   1.54138752  -0.67998942  -0.46598139
 C  -0.65224533  -1.31024049   0.64558492
 H  -0.60324420  -2.34255432   0.28833949
 H  -1.70801878  -1.02809455   0.66661436
 O   2.32331903  -0.12664191   0.29282767
 C  -0.10629388  -1.24886075   2.07265394
 H   0.93002714  -1.60229532   2.05639200
 C  -0.11114106   0.17616850   2.61741204
 H  -1.12753067   0.58187967   2.61891916
 H   0.26015412   0.19467301   3.64504663
 H   0.52230115   0.83083521   2.01933603
 C  -0.91462642  -2.18337625   2.96678588
 H  -1.95321704  -1.84925595   3.02187448
 H  -0.90687949  -3.20453616   2.58031153
 H  -0.51035562  -2.20583811   3.98131615
 N   1.92519195  -1.59588946  -1.38892270
 H   1.24742326  -1.95103128  -2.03649540
 C   3.31467079  -1.97229218  -1.54711617
 H   3.90999000  -1.22967231  -1.01461108
 C   3.71344626  -1.90312329  -3.01395335
 C   3.63637857  -3.36155049  -0.98690819
 H   4.69859665  -3.54712028  -1.16875571
 H   3.08062360  -4.12414493  -1.52714504
 O   4.70538241  -1.34772000  -3.41156000
 C   3.35777806  -3.46880455   0.50397243
 H   3.84752382  -2.64385140   1.03097495
 H   2.28259081  -3.37663412   0.68912074
 C   3.82379958  -4.79510904   1.07587498
 H   3.73843549  -4.78730521   2.16907664
 H   4.87263309  -4.95215541   0.82237637
 N   3.04149987  -5.87276290   0.50054301
 H   2.05130536  -5.70839856   0.42682140
 N   4.61716621  -7.50005318   1.10014074
 H   4.73354920  -8.45089602   1.41319315
 H   5.05294654  -6.84318119   1.72752580
 N   2.34684520  -8.04745365   0.57258773
 H   2.67443970  -8.99214291   0.74605230
 C   3.29265159  -7.20216624   0.75553622
 O   2.84424639  -2.54915249  -3.80522882
 H   3.04062940  -2.31120131  -4.73818058
 H   1.60534698  -0.63540646  -8.09239971
