21
conf-684
 N  -3.14980173  -1.10122726   4.82693157
 H  -3.73689702  -1.87893632   4.54942862
 H  -2.19988121  -1.42452198   4.68126708
 C  -3.40512343   0.04110511   3.96073838
 H  -4.48921430   0.18569021   3.91596852
 C  -2.88436086  -0.15537087   2.54496553
 C  -2.78969264   1.30995790   4.56171136
 H  -3.24566216   2.19543083   4.11616487
 H  -3.02663347   1.32155561   5.62559136
 O  -1.99209612  -0.95307636   2.26517806
 C  -1.28571623   1.37489662   4.34985072
 H  -1.05968173   1.54312432   3.30059223
 H  -0.80104720   0.43877203   4.62979817
 C  -0.63136048   2.51458946   5.07064986
 O  -1.18500679   3.50708340   5.46533051
 O   0.70418187   2.32387147   5.19239774
 N  -3.43669303   0.64728424   1.60091026
 H  -3.95516797   1.44967707   1.90393270
 C  -2.82526375   0.72077984   0.28496760
 H  -2.91660662  -0.26212324  -0.16780654
 C  -1.33487475   1.08244142   0.43604444
 C  -3.51529528   1.78697023  -0.56755926
 H  -2.95226428   1.90879457  -1.49558482
 H  -3.43744901   2.73112680  -0.03153433
 O  -0.95386230   2.05756013   1.12113283
 C  -4.95057995   1.45153723  -0.85173950
 C  -6.04447468   2.19096973  -0.50924746
 H  -6.09830720   3.14325514  -0.00414429
 C  -5.44412570   0.26552137  -1.50060202
 C  -6.84737496   0.35331045  -1.52232426
 C  -4.81509739  -0.85782223  -2.05544190
 H  -3.73415312  -0.94974399  -2.03815767
 N  -7.19151853   1.53764268  -0.91401577
 H  -8.12598172   1.87509292  -0.78663678
 C  -7.00601885  -1.73739947  -2.63372943
 H  -7.59130438  -2.53128183  -3.08216062
 C  -7.65387084  -0.64152596  -2.08379718
 H  -8.73441637  -0.55368988  -2.08870346
 C  -5.60300668  -1.84288709  -2.62188403
 H  -5.13888137  -2.72121666  -3.05349901
 N  -0.49313835   0.25439575  -0.22974531
 H  -0.84737165  -0.46825267  -0.83103190
 C   0.93641343   0.36229651  -0.14015437
 H   1.17311187   1.40675123   0.07600322
 C   1.47461708  -0.05998231  -1.50950326
 C   1.52126973  -0.54000838   0.97743530
 H   2.56933039  -0.75220832   0.75265661
 O   0.74126738  -0.61319366  -2.31901493
 C   1.42058327   0.12412564   2.34178740
 H   2.09262835   0.98142683   2.41024614
 H   1.67268285  -0.58921074   3.12611947
 H   0.40283843   0.48320736   2.50488167
 O   0.87049296  -1.79523841   0.97634650
 H  -0.06628594  -1.61696972   1.11984853
 N   2.77479341   0.22085959  -1.73304001
 H   3.30169863   0.74018744  -1.04830805
 C   3.58336681  -0.29060677  -2.83215709
 H   3.77746424  -1.36295321  -2.69782557
 C   4.93484218   0.38301194  -2.69628381
 C   2.96257775  -0.13949932  -4.22117280
 H   2.13771636  -0.84208475  -4.26935652
 H   3.69021231  -0.47676042  -4.96079791
 O   5.23652889   1.13391727  -1.80438777
 C   2.47813561   1.26126561  -4.56527010
 H   2.03952496   1.74793208  -3.69639721
 H   3.31720336   1.88726342  -4.88277269
 C   1.42201313   1.22491251  -5.65936071
 H   1.18741100   2.24025056  -5.99242620
 H   1.78685767   0.67196941  -6.53092513
 N   0.20578845   0.58836233  -5.12712081
 H   0.27035425   0.14436103  -4.21507358
 N  -0.97065136   0.73321137  -7.13443666
 H  -1.89756306   0.91856776  -7.49001877
 H  -0.26346403   1.37375697  -7.46407079
 N  -1.96898604  -0.22577546  -5.25061631
 H  -1.79897345  -0.69642831  -4.36841785
 H  -2.57559771  -0.73548899  -5.87691936
 C  -0.89076936   0.36710503  -5.83186411
 O   5.78264875   0.02925461  -3.67917595
 H   6.61754528   0.48138136  -3.49800228
 H   1.04786039   3.10760174   5.64345309
