21
conf-95
 N  -5.54469034   3.42601053   1.77476261
 H  -5.95273599   3.14258423   0.88988916
 H  -5.83916585   2.72719685   2.45195636
 C  -4.08505836   3.37317934   1.67129502
 H  -3.73965554   4.11322727   0.93310037
 C  -3.61941293   1.97127594   1.27694356
 C  -3.47105072   3.77581339   3.01496574
 H  -3.86176192   4.77109114   3.23237913
 H  -3.84512632   3.09903757   3.78983453
 O  -4.10090656   0.97971336   1.80629208
 C  -1.93992317   3.82906647   3.01813940
 H  -1.50662596   2.84850981   2.80277917
 H  -1.57528137   4.18591859   3.98658780
 C  -1.54801659   4.73462581   1.89796797
 O  -1.46645574   4.42020685   0.72940339
 O  -1.37985869   6.05142045   2.20660752
 N  -2.62550597   1.89500515   0.35452106
 H  -2.17364680   2.71608582  -0.05264130
 C  -2.10411248   0.62943538  -0.08517968
 H  -2.32151428  -0.10410587   0.69264736
 C  -0.59602241   0.78831160  -0.28416754
 C  -2.73188757   0.16880451  -1.41567930
 H  -2.23684023  -0.75494025  -1.72656240
 H  -2.52772066   0.92286858  -2.17776951
 O  -0.12762956   1.70816554  -0.94461408
 C  -4.20636389  -0.07719039  -1.27812496
 C  -4.79898086  -1.26983269  -0.95790649
 H  -4.34813229  -2.23987419  -0.81155056
 C  -5.27081288   0.89245617  -1.36555848
 C  -6.46748792   0.23678101  -1.03149342
 C  -5.31387200   2.24893273  -1.71716870
 H  -4.41338505   2.77654341  -2.02301913
 N  -6.15687404  -1.08677391  -0.80283908
 H  -6.81142984  -1.80365435  -0.55379133
 C  -7.69466367   2.25585477  -1.25071101
 H  -8.61567219   2.82121356  -1.16929728
 C  -7.69279475   0.90248493  -0.94885776
 H  -8.59819715   0.38120356  -0.66279999
 C  -6.52475133   2.91702113  -1.64208018
 H  -6.55890624   3.98119118  -1.85320341
 N   0.16502956  -0.18711500   0.25531218
 H  -0.25707211  -0.86572464   0.87269461
 C   1.61843818  -0.16680384   0.22114316
 H   1.99009416   0.52044160   0.99027037
 C   2.10958639   0.27561286  -1.14360663
 C   2.12805172  -1.57750038   0.53102054
 H   1.74100249  -2.24934681  -0.24544985
 O   2.02449607  -0.42339050  -2.14106913
 C   3.64183717  -1.64616951   0.57793643
 H   4.06759180  -1.34002667  -0.37973923
 H   3.96511834  -2.66470998   0.79873271
 H   4.01195499  -0.98191579   1.36078442
 O   1.57132660  -1.92869562   1.79897452
 H   1.84369977  -2.82686507   2.00248867
 N   2.67025390   1.51009619  -1.19395792
 H   2.49164198   2.14784362  -0.43984545
 C   2.93184298   2.08127782  -2.50011396
 H   2.01836292   2.01146352  -3.10603085
 C   4.01932829   1.27131190  -3.18768947
 C   3.36376230   3.54219247  -2.37688010
 H   3.78918031   3.86520247  -3.32896964
 H   4.16536862   3.58614756  -1.63885568
 O   4.89832612   0.65325765  -2.64663410
 C   2.22604910   4.48298119  -2.00048087
 H   1.46771171   4.45332203  -2.78566511
 H   1.73034192   4.16034709  -1.08257983
 C   2.72128003   5.91481093  -1.83657296
 H   3.56588751   5.94305556  -1.13943517
 H   3.09269445   6.28333574  -2.79445240
 N   1.69572501   6.88765984  -1.40415104
 H   1.24268800   7.42764844  -2.12682141
 N   1.71557464   6.22462689   0.82625854
 H   1.12627749   5.99428047   1.61318555
 H   2.45281999   5.57872332   0.60108866
 N   0.10094467   7.72940335   0.13702559
 H  -0.10905496   8.41979153  -0.58122805
 H   0.22929124   8.18369672   1.04052850
 C   1.18847098   6.93752778  -0.17630376
 O   3.91632302   1.38303360  -4.53448709
 H   4.64940229   0.86732396  -4.89112083
 H  -1.34051879   6.55436193   1.37162864
