21
conf-549
 N  -5.95329181   1.33297489   3.11642144
 H  -6.30721156   1.61493393   2.20871047
 H  -6.17067888   0.34480603   3.20428873
 C  -4.50799686   1.50757352   3.16184062
 H  -4.28784001   2.56981289   2.98202347
 C  -3.79888198   0.67898613   2.08843715
 C  -3.95539334   1.13074582   4.53992409
 H  -4.10103971   0.06041489   4.70134458
 H  -2.87651840   1.31925862   4.55590909
 O  -4.19254786  -0.43027407   1.75921753
 C  -4.61853907   1.90597376   5.68411405
 H  -4.75321982   2.95722407   5.42818968
 H  -3.97801416   1.87110425   6.57127316
 C  -5.93612098   1.31547970   6.11052943
 O  -6.21007222   0.14024227   6.10563973
 O  -6.79418780   2.25862828   6.55500297
 N  -2.68810471   1.24854241   1.55998977
 H  -2.27540321   2.08083913   1.94912560
 C  -1.93986941   0.60240918   0.50901089
 H  -2.16248555  -0.46506753   0.55805523
 C  -0.46465715   0.89356406   0.76899230
 C  -2.35618799   1.14133199  -0.87690101
 H  -1.79138118   0.62295760  -1.65458587
 H  -2.10183612   2.20381486  -0.92295591
 O  -0.11306542   1.90793900   1.36369891
 C  -3.83197853   0.98485286  -1.10505847
 C  -4.79011604   1.88835883  -0.73557947
 H  -4.67662536   2.83897889  -0.23739386
 C  -4.52612089  -0.13923853  -1.67814943
 C  -5.90111219   0.14981713  -1.63958532
 C  -4.09383832  -1.35819995  -2.21588644
 H  -3.03913889  -1.60979697  -2.26412048
 N  -6.03913459   1.39427586  -1.06339766
 H  -6.90953992   1.87577097  -0.93653074
 C  -6.41781119  -1.93199996  -2.64981374
 H  -7.13602588  -2.64589455  -3.03513561
 C  -6.86943973  -0.73192277  -2.12074321
 H  -7.92443899  -0.48515062  -2.08041756
 C  -5.04659761  -2.24210295  -2.69733420
 H  -4.73191441  -3.18907627  -3.11906026
 N   0.41942058   0.02151442   0.24996637
 H   0.12897412  -0.75791446  -0.32173788
 C   1.84816438   0.27247898   0.24611203
 H   2.00852616   1.35211618   0.18029799
 C   2.38904481  -0.45058319  -0.98767109
 C   2.50569281  -0.21847341   1.56008170
 H   2.43436707  -1.31283423   1.58272149
 O   1.83398213  -1.43164899  -1.44414329
 C   3.95555544   0.21825608   1.68271304
 H   4.58051751  -0.22243592   0.90814083
 H   4.33544189  -0.09070378   2.65848978
 H   4.02503775   1.31161996   1.62360292
 O   1.78231843   0.25638298   2.67872032
 H   1.33647697   1.06719676   2.40986260
 N   3.51503941   0.06632062  -1.54300946
 H   4.02298725   0.78925991  -1.06394271
 C   4.16364116  -0.61375975  -2.65018930
 H   3.39493350  -0.89391279  -3.37583432
 C   4.83516338  -1.90466907  -2.22937785
 C   5.18161643   0.32375949  -3.31133182
 H   5.96191472   0.56880794  -2.58688749
 H   4.65765568   1.25192034  -3.54905811
 O   4.93587752  -2.88321194  -2.92828270
 C   5.78481846  -0.25283910  -4.58505049
 H   6.32226605  -1.17249420  -4.37416922
 H   4.97984234  -0.51659802  -5.27435767
 C   6.72832515   0.72995593  -5.25953946
 H   6.18207890   1.63786135  -5.52295853
 H   7.52369890   1.02925533  -4.56872891
 N   7.32907468   0.24246689  -6.51460075
 H   6.73231449   0.29018704  -7.32860218
 N   8.77810342  -1.21575453  -5.40785618
 H   9.64382712  -1.73011559  -5.43765126
 H   8.59573021  -0.71237013  -4.55521759
 N   8.60301032  -1.24800541  -7.74953695
 H   8.45299988  -0.66626010  -8.56316170
 H   9.43488516  -1.81856965  -7.78586851
 C   8.25427252  -0.72673525  -6.54766074
 O   5.37447530  -1.83874614  -0.99372705
 H   5.80483909  -2.68664109  -0.83684501
 H  -7.59508080   1.78713209   6.82223668
