21
conf-102
 N  -7.44643827   2.87328218   2.28775668
 H  -7.30774094   3.73620343   2.81623663
 H  -7.03125871   3.01402129   1.36393011
 H  -8.44567288   2.70907535   2.18378093
 C  -6.76708115   1.73005287   2.92976454
 H  -7.03912111   1.68801021   3.99063438
 C  -5.25771030   1.95437187   2.80918547
 C  -7.20714374   0.41338924   2.25943077
 H  -6.88154143   0.42775563   1.21618171
 H  -8.29803782   0.39191168   2.26459282
 O  -4.78540723   2.61497463   1.89435512
 C  -6.69973796  -0.80507621   2.95653470
 C  -7.20925525  -1.58349242   3.95835157
 H  -8.19511208  -1.53307942   4.39580060
 N  -5.42946300  -1.28765415   2.76155246
 H  -4.71196199  -0.92598902   2.15133516
 C  -5.20020744  -2.24795677   3.68357074
 H  -4.23315801  -2.71000776   3.76380277
 N  -6.26730684  -2.48671900   4.41172676
 N  -4.49765513   1.40869469   3.79628658
 H  -4.87553983   0.63538804   4.31739558
 C  -3.05015080   1.46431029   3.70395823
 H  -2.80946943   2.41949418   3.23153477
 C  -2.54686682   0.30782005   2.82245452
 C  -2.40589609   1.43343770   5.09860436
 H  -2.71815337   0.51804139   5.60758101
 O  -2.58708062  -0.86700035   3.22788475
 C  -0.88933793   1.49130099   4.99821221
 H  -0.51271346   0.65787641   4.40145501
 H  -0.44925797   1.45393516   5.99565212
 H  -0.59384458   2.42707123   4.51439494
 O  -2.88657691   2.49790663   5.90457026
 H  -2.61446753   3.31867793   5.48712660
 N  -2.22062910   0.67110800   1.56039961
 H  -2.05190393   1.64615507   1.40506378
 C  -1.52042058  -0.25554236   0.69671586
 H  -1.97482365  -1.23616736   0.86874716
 C  -0.03905040  -0.33794610   1.08402968
 C  -1.63128294   0.15687986  -0.77044475
 H  -1.11378083  -0.58377340  -1.37802524
 H  -1.06597024   1.08438729  -0.90043612
 O   0.55324671   0.54397232   1.68850211
 C  -3.05350685   0.33018819  -1.30579631
 H  -3.60022969   0.99777553  -0.63374392
 C  -3.01320601   0.96834662  -2.69303994
 H  -2.38347840   0.36781268  -3.35693491
 H  -2.61805288   1.98440093  -2.66603837
 H  -4.01509945   1.01031489  -3.12989006
 C  -3.78015192  -1.00920401  -1.36687550
 H  -3.28615984  -1.67240519  -2.08241440
 H  -4.81434998  -0.87710432  -1.69191420
 H  -3.79594757  -1.51584990  -0.39767095
 N   0.58299190  -1.49186634   0.67290675
 H   0.06571309  -2.04486167   0.01165459
 C   2.01144598  -1.45095027   0.39509191
 H   2.45631112  -0.78705704   1.13501170
 C   2.22250843  -0.86391042  -1.00395207
 C   2.60620078  -2.84967437   0.47560958
 H   3.67825728  -2.83193893   0.26426598
 H   2.12292417  -3.49762612  -0.25931128
 H   2.44247004  -3.27110806   1.46733626
 O   1.47632144  -1.12795575  -1.93409572
 N   3.30900745  -0.06529005  -1.13222367
 H   3.95250429   0.01555938  -0.36630841
 C   3.67784284   0.48138862  -2.41717463
 H   2.98080025   0.03363142  -3.12823309
 C   5.10661400   0.04689394  -2.76015450
 C   3.55955442   2.00532304  -2.45411685
 H   4.19214684   2.40724016  -1.66236950
 H   3.97912998   2.35443387  -3.39707852
 O   6.03802819   0.83525955  -2.85648776
 C   2.15615181   2.49729475  -2.31694412
 C   1.40869125   2.86271219  -3.44604107
 H   1.84348771   2.75622810  -4.43328290
 C   1.56230330   2.62959274  -1.05236853
 H   2.10369181   2.29907204  -0.17193622
 C   0.13081254   3.36540151  -3.34114229
 H  -0.45101515   3.63466150  -4.21258073
 C   0.31530920   3.19684031  -0.89388683
 H  -0.12264277   3.33611177   0.08565517
 O  -1.61489288   4.06181342  -1.92736745
 C  -0.47676326   3.58461127  -2.04438766
 N   5.26771088  -1.28926233  -2.93514611
 H   4.56829992  -1.92009656  -2.56942513
 C   6.58625681  -1.84595639  -3.19193227
 H   7.21598288  -1.69586849  -2.31056922
 C   7.19703799  -1.11793566  -4.38880373
 C   6.49737439  -3.32931264  -3.54931622
 H   7.48249657  -3.73217946  -3.78381895
 H   5.88667122  -3.42546136  -4.45026214
 O   6.69278419  -1.16729659  -5.49722041
 C   5.87531716  -4.18378013  -2.48769910
 O   5.00052904  -3.82345217  -1.72846724
 O   6.36436739  -5.43269345  -2.48822244
 N   8.31707988  -0.40088224  -4.13246983
 H   8.57278358  -0.22872301  -3.17699508
 C   8.82879056   0.50817863  -5.13968016
 H   7.97654627   0.98697683  -5.63960364
 C   9.59657378  -0.21443110  -6.23608420
 C   9.72512049   1.57593918  -4.51404730
 H   10.22476406   2.11532243  -5.32212765
 H   10.49854837   1.08180907  -3.92806140
 O   9.59667658   0.13564328  -7.38905544
 C   8.94795374   2.55895032  -3.65417012
 H   8.13967925   2.98206008  -4.26098062
 H   8.46444075   2.03192261  -2.82950872
 C   9.82324519   3.66367213  -3.08787545
 H   10.65970115   3.21247925  -2.54484235
 H   10.25629912   4.25348053  -3.90134970
 C   9.08258474   4.58304539  -2.13630803
 H   9.78305286   5.25007317  -1.63120172
 H   8.60408139   3.97369734  -1.36410348
 N   8.04064412   5.39206669  -2.81971380
 H   7.53273804   5.99291118  -2.17015558
 H   7.35553458   4.79216289  -3.27640200
 H   8.44883522   5.98581325  -3.54136886
 O   10.32900925  -1.25174521  -5.78167912
 H   10.78417029  -1.61429408  -6.55184564
 H   5.89025688  -5.91444934  -1.79590403
