21
conf-84
 N  -8.49756497  -0.26824070   5.08996806
 H  -7.96767656  -0.24156426   5.96457329
 H  -8.98337683   0.62589617   4.99005829
 H  -9.19431766  -1.00985005   5.15991107
 C  -7.60700296  -0.47148179   3.92272481
 H  -6.99607508  -1.36559822   4.08177423
 C  -6.70016918   0.73979556   3.76578307
 C  -8.44623161  -0.64471481   2.64932643
 H  -9.12463264   0.20876201   2.57974406
 H  -9.05636380  -1.53990190   2.76284360
 O  -7.18049030   1.86142116   3.58188861
 C  -7.62400861  -0.74974307   1.40606205
 C  -7.15999711  -1.80803114   0.68287589
 H  -7.34987057  -2.85867927   0.84577043
 N  -7.09153482   0.36366440   0.79912256
 H  -7.15806734   1.30417759   1.16556458
 C  -6.35186572  -0.06379903  -0.25550059
 H  -5.83815961   0.61636740  -0.91063591
 N  -6.36616688  -1.37371504  -0.35973402
 N  -5.36611363   0.48229734   3.85024611
 H  -5.06627863  -0.47847690   3.75805648
 C  -4.37206641   1.45224488   3.41941247
 H  -4.88901825   2.38511439   3.19781867
 C  -3.69492701   0.89305187   2.17313277
 C  -3.37032765   1.71787045   4.56146159
 H  -2.83021661   0.77981788   4.75327697
 O  -3.48651316  -0.30085918   2.03521570
 C  -2.40790083   2.84710914   4.26476460
 H  -1.80059340   2.64457492   3.38925608
 H  -1.75592422   2.99719456   5.12705907
 H  -2.98263794   3.76586573   4.10701280
 O  -4.08377891   2.11809963   5.72717021
 H  -4.75641085   1.44708422   5.88350203
 N  -3.34134809   1.80499072   1.22323613
 H  -3.25060683   2.76500158   1.51053536
 C  -2.51568153   1.39692652   0.10063856
 H  -2.84985319   0.39571591  -0.17191488
 C  -1.04800424   1.31818704   0.53661851
 C  -2.72540377   2.35643794  -1.07575216
 H  -2.34776834   3.34166689  -0.78651401
 H  -3.80634611   2.45768349  -1.21282709
 O  -0.59044041   1.97506037   1.46242841
 C  -2.12735510   1.95986969  -2.42803652
 H  -1.04308156   1.86402587  -2.32518845
 C  -2.68399126   0.63593662  -2.93697986
 H  -3.76029060   0.72404109  -3.11540612
 H  -2.52579922  -0.18554125  -2.22941493
 H  -2.20109525   0.35243777  -3.87591180
 C  -2.39753449   3.07348780  -3.43664135
 H  -3.47300233   3.21120102  -3.56653388
 H  -1.96812143   2.83728431  -4.41249591
 H  -1.97193443   4.02221829  -3.10395400
 N  -0.27851317   0.49045101  -0.20767099
 H  -0.60220740   0.09841176  -1.07389464
 C   1.15409290   0.44650064  -0.05390234
 H   1.52625533   1.46212427   0.13578414
 C   1.69356746  -0.04764031  -1.40410109
 C   1.57050172  -0.45108082   1.10668251
 H   2.65445686  -0.43391979   1.23311849
 H   1.25378299  -1.48106995   0.92741704
 H   1.10202016  -0.09103561   2.02139835
 O   0.94645697  -0.39916372  -2.30157170
 N   3.03825461  -0.08362991  -1.50670054
 H   3.63811051   0.27477240  -0.78136247
 C   3.70324563  -0.34877867  -2.76017956
 H   3.32521845  -1.29199096  -3.17256885
 C   5.19036697  -0.49248595  -2.42462785
 C   3.45291123   0.75921641  -3.80925556
 H   4.08834357   0.55519796  -4.67452355
 H   2.41627698   0.67868825  -4.12515895
 O   5.64401623  -0.15580944  -1.34530374
 C   3.69849530   2.12482425  -3.27727094
 C   2.61322781   2.92891753  -2.85928049
 H   1.60573276   2.54203638  -2.97806861
 C   5.00385824   2.63750477  -3.15512300
 H   5.83483844   2.02540244  -3.49822934
 C   2.80527796   4.16741181  -2.31002731
 H   1.98042160   4.78496581  -1.98309595
 C   5.25104000   3.87028236  -2.61615432
 H   6.25596815   4.25891331  -2.51953354
 O   4.34407210   5.81095484  -1.64795807
 C   4.14922884   4.70459166  -2.14915767
 N   5.96816801  -0.94974734  -3.43224573
 H   5.55144757  -1.39017668  -4.23650418
 C   7.33105172  -1.33832396  -3.15968386
 H   7.84325317  -0.47335766  -2.73258785
 C   7.99057912  -1.71473168  -4.48970599
 C   7.44635360  -2.46847802  -2.12771867
 H   7.10950713  -2.08088886  -1.16561268
 H   8.48911223  -2.77806603  -2.02046919
 O   7.35429840  -1.96123109  -5.49781014
 C   6.60297025  -3.67498698  -2.43144384
 O   5.67250817  -3.73448803  -3.20118651
 O   6.99604683  -4.73301887  -1.68973911
 N   9.34678681  -1.75581299  -4.45339748
 H   9.83049286  -1.57118282  -3.59112389
 C   10.09309616  -2.27930990  -5.56987328
 H   9.35852586  -2.74308575  -6.23816092
 C   11.03425205  -3.39475027  -5.16219819
 C   10.83794919  -1.20353839  -6.36179579
 H   11.43683318  -1.70878221  -7.12155811
 H   11.53388867  -0.67119205  -5.71012234
 O   11.88741906  -3.84989373  -5.87733384
 C   9.88787459  -0.21952118  -7.02634164
 H   9.17463792  -0.77610238  -7.64402237
 H   9.29868884   0.30372291  -6.27485369
 C   10.61439109   0.79881814  -7.88585393
 H   11.32171230   1.35879722  -7.26813259
 H   11.19656960   0.28784352  -8.65751067
 C   9.66681048   1.77285113  -8.54953551
 H   9.07921169   2.27851790  -7.77960812
 H   8.96520884   1.21858251  -9.17739139
 N   10.37720939   2.78314309  -9.37266037
 H   9.73680310   3.44155220  -9.81738539
 H   10.91966994   2.33599823  -10.11097914
 H   11.02750907   3.32392118  -8.80355279
 O   10.78738664  -3.86997087  -3.92251528
 H   11.41230783  -4.59436242  -3.78057021
 H   6.39858063  -5.45678858  -1.91939702
