21
conf-399
 N  -7.39231617   0.05368242   5.00945676
 H  -7.19040538   0.62735352   5.82872243
 H  -7.92689261   0.63691514   4.36346234
 H  -7.95666966  -0.75402214   5.28375423
 C  -6.14294991  -0.36881356   4.35462843
 H  -5.55405730  -0.96601391   5.05787839
 C  -5.33214187   0.86662772   3.96492118
 C  -6.42180956  -1.22655175   3.11705318
 H  -5.47100919  -1.57875457   2.71370840
 H  -6.88720765  -0.61257726   2.34445490
 O  -5.81648533   1.98846640   3.99076019
 C  -7.33378725  -2.38210976   3.40297924
 C  -8.45430878  -2.83729710   2.77159920
 H  -8.91127929  -2.45458853   1.87020461
 N  -7.18985388  -3.19924729   4.50135668
 H  -6.43477731  -3.17792756   5.16971372
 C  -8.20356408  -4.10661615   4.47313430
 H  -8.31216696  -4.87259575   5.22237070
 N  -8.99611728  -3.91507638   3.44589852
 N  -4.05710095   0.62105295   3.56675110
 H  -3.65333205  -0.29546730   3.67312324
 C  -3.15210362   1.67439143   3.15922930
 H  -3.74920582   2.54126643   2.89320679
 C  -2.37030629   1.17339693   1.95674043
 C  -2.16549203   2.06252129   4.27973334
 H  -1.41166881   2.73388797   3.84425692
 O  -1.74969041   0.10671738   2.00556771
 C  -2.86932222   2.76883693   5.41813391
 H  -3.35643367   3.68461945   5.06846608
 H  -2.14678419   3.01788032   6.19472878
 H  -3.62974999   2.12196825   5.85357059
 O  -1.54017449   0.91467905   4.83787168
 H  -1.07173143   0.45979464   4.12757564
 N  -2.40144912   1.93197799   0.84667462
 H  -2.81625548   2.84878559   0.87233925
 C  -1.66455822   1.52991208  -0.34033529
 H  -1.70576327   0.43675370  -0.36055923
 C  -0.20625251   1.96243540  -0.19645934
 C  -2.29001894   2.07720049  -1.60655450
 H  -2.23069995   3.16761427  -1.59254470
 H  -3.34646761   1.79790221  -1.59827672
 O   0.24528675   2.98331812  -0.69448571
 C  -1.64859668   1.54380166  -2.89648514
 H  -0.62948782   1.93769997  -2.94889709
 C  -1.58102877   0.02053922  -2.92087019
 H  -2.54935024  -0.41325024  -2.65406672
 H  -0.83359078  -0.36261581  -2.22515857
 H  -1.31429031  -0.33473400  -3.91950529
 C  -2.43349563   2.07487458  -4.09448885
 H  -3.44991253   1.67387648  -4.08875098
 H  -1.95819442   1.78295499  -5.03343672
 H  -2.49478241   3.16501809  -4.07333200
 N   0.54835459   1.10406673   0.55091874
 H   0.06874549   0.29382591   0.91792923
 C   1.94305634   0.88296790   0.20145466
 H   2.38681328   1.85828666   0.00676033
 C   2.02504981   0.00886183  -1.09196481
 C   2.64476817   0.13431043   1.32988051
 H   3.72757147   0.12194697   1.17421513
 H   2.28432450  -0.89654405   1.34761806
 H   2.42999861   0.61152403   2.28397049
 O   1.26332246  -0.96197707  -1.30692558
 N   3.04628314   0.38531222  -1.92493057
 H   3.72056074   1.03864781  -1.56863956
 C   3.47175060  -0.49882314  -2.99999788
 H   2.60058290  -1.09777198  -3.25941988
 C   4.57750632  -1.42139975  -2.48647377
 C   3.90116454   0.30192387  -4.21710585
 H   3.09389541   1.00640349  -4.42232771
 H   4.80360279   0.86659688  -3.97660071
 O   5.76561632  -1.24843959  -2.75822919
 C   4.14782343  -0.57600586  -5.40007517
 C   5.45226579  -0.83481143  -5.83392915
 H   6.29202145  -0.41263457  -5.28998858
 C   3.07862012  -1.18904721  -6.06792116
 H   2.07019094  -0.99775565  -5.71379993
 C   5.69302614  -1.63184405  -6.92837463
 H   6.69129980  -1.85072768  -7.27133387
 C   3.27192128  -2.01510063  -7.15133221
 H   2.45008616  -2.48677276  -7.67298873
 O   4.81909684  -3.01972628  -8.61722847
 C   4.61495532  -2.28106126  -7.63947873
 N   4.16252507  -2.40664253  -1.65332793
 H   3.16989322  -2.53563649  -1.52128649
 C   5.07057279  -3.47549034  -1.25074365
 H   6.01869406  -3.00251911  -0.99522718
 C   5.27101807  -4.45176797  -2.41974761
 C   4.50431626  -4.24124953  -0.05586091
 H   5.13055987  -5.11158271   0.14256309
 H   3.50291889  -4.60084031  -0.28682034
 O   4.64462555  -5.49397646  -2.52528295
 C   4.46682439  -3.40359852   1.18435682
 O   3.47864584  -3.17567789   1.84082994
 O   5.68217403  -2.91708010   1.51210138
 N   6.18516575  -4.06975948  -3.34884819
 H   6.49743599  -3.10825909  -3.33353400
 C   6.25834435  -4.77951248  -4.61146645
 H   5.29498340  -4.71709152  -5.13113519
 C   6.52162289  -6.26038209  -4.39716426
 C   7.37422931  -4.17131623  -5.46535523
 H   8.33201451  -4.44416552  -5.01607768
 H   7.29746286  -3.08062189  -5.39180436
 O   6.00901953  -7.14674387  -5.03730788
 C   7.30951474  -4.60754051  -6.91877344
 H   7.26244941  -5.69964567  -6.97207698
 H   6.37772769  -4.23642950  -7.36395348
 C   8.49228623  -4.12001956  -7.73805170
 H   8.51110803  -3.02714204  -7.76973103
 H   9.42115138  -4.43682830  -7.25364605
 C   8.48444908  -4.65519706  -9.15363228
 H   7.59554391  -4.30159644  -9.68004677
 H   8.42680182  -5.74542847  -9.11858109
 N   9.69317395  -4.25014677  -9.91594624
 H   9.68052128  -4.59850717  -10.87510405
 H   10.54043051  -4.60426588  -9.47314528
 H   9.77443922  -3.23502407  -9.95919449
 O   7.45352407  -6.47495230  -3.45121252
 H   7.56949473  -7.43019864  -3.38950517
 H   5.56787696  -2.42549304   2.33497377
