21
conf-474
 N  -6.98261947  -0.66277607   5.90792029
 H  -6.62897438  -0.26844595   6.77951213
 H  -7.55680644   0.05839368   5.46749580
 H  -7.57226247  -1.46716860   6.11963359
 C  -5.86961634  -1.02609464   5.01177280
 H  -5.20708382  -1.73367320   5.51881314
 C  -5.07344124   0.23897912   4.69787358
 C  -6.38699017  -1.70846995   3.73108145
 H  -6.94032642  -2.60461094   4.02112660
 H  -5.53821116  -2.04223366   3.12328858
 O  -5.42732465   1.33401794   5.10744264
 C  -7.29120024  -0.83163888   2.91945048
 C  -8.62957711  -0.89425328   2.66118810
 H  -9.32803934  -1.65231979   2.98773986
 N  -6.86321976   0.31955157   2.30027875
 H  -5.92221848   0.67275378   2.28375125
 C  -7.94154753   0.89371058   1.71415062
 H  -7.86318809   1.81742281   1.16946020
 N  -9.03481372   0.19235977   1.90914450
 N  -3.96565266   0.06340925   3.93091908
 H  -3.81789857  -0.79520307   3.41734450
 C  -3.26233401   1.18900802   3.35664240
 H  -3.91345699   2.06626197   3.37050646
 C  -2.90330173   0.78404442   1.93134969
 C  -1.98361860   1.53344547   4.14384007
 H  -1.44194514   2.30836613   3.58952318
 O  -2.95502763  -0.38185233   1.56376026
 C  -2.29035303   2.00649537   5.54823518
 H  -2.98067511   2.85348327   5.54219635
 H  -1.36476897   2.29495511   6.04746221
 H  -2.74446196   1.19680806   6.11896969
 O  -1.11116571   0.41304391   4.18730295
 H  -1.60624605  -0.29247742   4.61454723
 N  -2.50521941   1.78969943   1.12152428
 H  -2.29564306   2.68013845   1.53667894
 C  -1.85593211   1.48161815  -0.14519971
 H  -2.28398365   0.53083236  -0.47457079
 C  -0.35475494   1.27786902   0.11647687
 C  -2.09693189   2.54549084  -1.19838564
 H  -1.60948848   2.20663050  -2.12065215
 H  -1.59894661   3.47064197  -0.90410418
 O   0.49317640   2.09665315  -0.21813083
 C  -3.56765273   2.82233939  -1.50987511
 H  -4.01930676   3.30883670  -0.63968943
 C  -3.65583235   3.79465153  -2.68850437
 H  -3.23792626   3.35060897  -3.59295099
 H  -3.10734422   4.71578534  -2.47654863
 H  -4.69473757   4.06819646  -2.89053285
 C  -4.34508053   1.53765188  -1.78290799
 H  -3.81865605   0.91388050  -2.51363987
 H  -5.33249942   1.76626589  -2.19169852
 H  -4.49080207   0.94207509  -0.87951855
 N  -0.04031282   0.16950422   0.84030898
 H  -0.72787225  -0.56844467   0.91735807
 C   1.33828232  -0.26218934   0.94320879
 H   1.95525763   0.63751364   0.92494393
 C   1.67410739  -1.14101149  -0.26487465
 C   1.55325012  -1.04248310   2.23293520
 H   2.59638004  -1.35263628   2.33237941
 H   0.92470279  -1.93523162   2.22967106
 H   1.28223465  -0.42032877   3.08681107
 O   0.89069250  -1.97428736  -0.68322505
 N   2.90740100  -0.93693028  -0.80115915
 H   3.63061165  -0.46686817  -0.27857652
 C   3.34767442  -1.65961772  -1.96732012
 H   2.60944577  -2.43948405  -2.14825557
 C   4.73588736  -2.22962811  -1.68342743
 C   3.42949681  -0.73569439  -3.20241064
 H   4.19595950   0.01613303  -2.98950682
 H   3.77788041  -1.32456678  -4.05439606
 O   5.51989839  -1.65407865  -0.94877580
 C   2.13453865  -0.05821628  -3.52322371
 C   1.23791940  -0.58991737  -4.46550489
 H   1.49217079  -1.50760736  -4.98617323
 C   1.78843160   1.13946269  -2.86754038
 H   2.45478220   1.54408325  -2.10935829
 C   0.04654426   0.03302812  -4.76183778
 H  -0.64457620  -0.36962961  -5.48940689
 C   0.62374591   1.80704670  -3.15230531
 H   0.36031623   2.73080595  -2.66800095
 O  -1.37827809   1.86124015  -4.38327443
 C  -0.31144206   1.27772161  -4.11449279
 N   5.04901057  -3.37599123  -2.34268056
 H   4.45401532  -3.68074293  -3.09938071
 C   6.43964600  -3.74621425  -2.48068533
 H   6.93084862  -3.44202221  -1.55640089
 C   7.08547521  -2.96560881  -3.64054035
 C   6.59664534  -5.26051212  -2.64569651
 H   6.19498309  -5.74154472  -1.75147868
 H   7.65140660  -5.53109518  -2.71716719
 O   6.44698051  -2.37509268  -4.49626845
 C   5.85439311  -5.83588996  -3.82165810
 O   4.86733340  -5.35916595  -4.33655409
 O   6.40038051  -6.99774414  -4.22742775
 N   8.43989792  -3.00524887  -3.65686373
 H   8.95185922  -3.43424186  -2.90247189
 C   9.16648802  -2.27663645  -4.68063225
 H   8.62012314  -2.38510003  -5.62016445
 C   10.54211820  -2.87166397  -4.87768813
 C   9.26619020  -0.77802155  -4.35444751
 H   9.86233667  -0.63795143  -3.45154474
 H   8.25560692  -0.43539592  -4.12990618
 O   11.12236056  -2.93974492  -5.93086909
 C   9.84220855   0.03968030  -5.50084448
 H   10.85848585  -0.28202864  -5.73504969
 H   9.24449077  -0.14807613  -6.39946187
 C   9.83437645   1.52869846  -5.20196092
 H   8.81739887   1.85321422  -4.96516904
 H   10.44769404   1.72693929  -4.31867671
 C   10.35503444   2.35519146  -6.35641603
 H   9.73577309   2.16948976  -7.23723941
 H   11.36841484   2.02850241  -6.60122497
 N   10.36249075   3.80831532  -6.05430177
 H   10.71893024   4.36485093  -6.83188817
 H   10.94432312   4.00783584  -5.24137511
 H   9.42237201   4.14160372  -5.84365125
 O   11.08906313  -3.28693257  -3.71318001
 H   11.96801018  -3.62669100  -3.92257881
 H   5.86045484  -7.31623822  -4.96377390
