21
conf-107
 N  -7.51179780   1.55203285   3.66595076
 H  -7.41665517   0.97191725   4.50311698
 H  -7.04588190   2.44366645   3.85040639
 H  -8.50345525   1.72836740   3.50707796
 C  -6.88489516   0.90299441   2.48611885
 H  -7.27613854  -0.11197464   2.39356844
 C  -5.37103599   0.83287534   2.69608346
 C  -7.19256964   1.70314746   1.22061141
 H  -6.78082653   2.70291238   1.36474638
 H  -8.27445183   1.79596140   1.11649278
 O  -4.66748672   1.85090598   2.80717655
 C  -6.59107919   1.12261699  -0.01990234
 C  -5.40203470   1.37115440  -0.62411015
 H  -4.67755342   2.11555473  -0.32194844
 N  -7.13041404   0.08312304  -0.74841226
 H  -8.02543181  -0.35462697  -0.59558694
 C  -6.25654209  -0.23688998  -1.73321908
 H  -6.45927235  -1.02020897  -2.44616050
 N  -5.18061555   0.52237823  -1.69582467
 N  -4.88560109  -0.43553538   2.79771672
 H  -5.43151616  -1.18525586   2.40641804
 C  -3.46266146  -0.66130677   3.00289531
 H  -3.09562128   0.23601482   3.50770487
 C  -2.77871307  -0.82693537   1.65386787
 C  -3.23646438  -1.86124964   3.92056700
 H  -3.66524456  -2.74861426   3.43385474
 O  -2.61481362  -1.93051366   1.12387039
 C  -1.77317414  -2.09244461   4.24460773
 H  -1.19763366  -2.32466663   3.34630926
 H  -1.68570196  -2.92052246   4.94781134
 H  -1.36100831  -1.19426322   4.70842259
 O  -3.87767552  -1.62416358   5.17099484
 H  -4.76690196  -1.31660055   4.97080114
 N  -2.36466463   0.31851745   1.07810011
 H  -2.67091787   1.19407607   1.48036438
 C  -1.62479238   0.31299843  -0.18207976
 H  -2.03411320  -0.52465785  -0.75200784
 C  -0.14446118   0.03583044   0.10027400
 C  -1.84575176   1.60708219  -0.94333359
 H  -1.34860091   2.42141850  -0.41388649
 H  -2.92787777   1.80724011  -0.92610356
 O   0.74759466   0.86878227  -0.08555438
 C  -1.42647215   1.59590874  -2.41439026
 H  -0.34611755   1.41459535  -2.45954527
 C  -2.14254009   0.49395944  -3.18945905
 H  -3.21676360   0.55509975  -3.00528437
 H  -1.79553253  -0.49788149  -2.89130287
 H  -1.96179296   0.59494815  -4.26244397
 C  -1.70945219   2.96793039  -3.02528520
 H  -2.78475301   3.17011457  -3.00857386
 H  -1.37316867   3.01433152  -4.06332746
 H  -1.20467762   3.76154736  -2.47127904
 N   0.12532094  -1.18829429   0.60497208
 H  -0.62081455  -1.87117612   0.68171972
 C   1.49371132  -1.59673818   0.85464233
 H   2.02407007  -0.68337160   1.14413708
 C   2.10460331  -2.11054496  -0.45093389
 C   1.57702206  -2.63497383   1.95888280
 H   2.61922738  -2.86281444   2.19171022
 H   1.07958858  -3.55376808   1.64705676
 H   1.08872479  -2.24562064   2.85707327
 O   2.23032470  -3.30865972  -0.70800240
 N   2.48872369  -1.15407769  -1.31883872
 H   2.30566492  -0.18171154  -1.09974648
 C   3.22516763  -1.50432524  -2.52248898
 H   2.83903526  -2.47490762  -2.84245970
 C   4.71205645  -1.64955010  -2.18350838
 C   2.99448890  -0.47787502  -3.62963544
 H   1.92825434  -0.23780310  -3.62411418
 H   3.55498162   0.42726838  -3.39681242
 O   5.57308528  -0.86875205  -2.59262103
 C   3.37726741  -1.01664424  -4.97027246
 C   4.59627916  -0.68949203  -5.57450725
 H   5.30075460  -0.05979751  -5.04465532
 C   2.51757255  -1.90508973  -5.63001984
 H   1.58916204  -2.18787321  -5.14175375
 C   4.92370801  -1.16738960  -6.82756320
 H   5.87149306  -0.92788040  -7.29268890
 C   2.81209770  -2.42268556  -6.86912615
 H   2.14357236  -3.10126648  -7.38257684
 O   4.29182142  -2.47549741  -8.69131218
 C   4.03909756  -2.05639908  -7.54383243
 N   5.01352107  -2.67310915  -1.35573032
 H   4.28219540  -3.32132299  -1.09510681
 C   6.39068627  -2.98598535  -1.02935716
 H   6.92393242  -2.03146820  -0.98585407
 C   7.00689522  -3.85470603  -2.13946786
 C   6.49292010  -3.71242446   0.31530948
 H   7.53324944  -3.96898917   0.51455080
 H   5.90568195  -4.62844836   0.29443637
 O   7.39347698  -4.99868146  -1.95127095
 C   5.95978745  -2.82774183   1.41657209
 O   4.86998833  -2.93085953   1.92442211
 O   6.82814115  -1.85505177   1.73002945
 N   7.04727851  -3.26966468  -3.36630305
 H   6.86835395  -2.27798963  -3.43521739
 C   7.71276333  -3.93571189  -4.46305215
 H   7.44027189  -4.99314096  -4.43785023
 C   9.22220191  -3.86459172  -4.33921535
 C   7.26384262  -3.31987209  -5.79270526
 H   7.62888049  -2.28902465  -5.85444919
 H   6.16787143  -3.26760921  -5.77012210
 O   9.98330239  -4.74444243  -4.65833069
 C   7.72457608  -4.11794727  -7.00096691
 H   8.81081487  -4.23365107  -6.97971777
 H   7.31140334  -5.12893026  -6.93030117
 C   7.31480262  -3.50136737  -8.32611798
 H   6.23367616  -3.36512065  -8.37206283
 H   7.76178805  -2.50412843  -8.41085277
 C   7.78729449  -4.33803936  -9.49568250
 H   7.30758575  -5.31820164  -9.44967003
 H   8.86325943  -4.50282204  -9.40000130
 N   7.50616251  -3.70527600  -10.80910102
 H   7.83209813  -4.27744687  -11.58922391
 H   7.96651292  -2.79837712  -10.88221322
 H   6.50627400  -3.55174590  -10.93819930
 O   9.64227406  -2.67218979  -3.86998837
 H   10.60505673  -2.71291733  -3.84706370
 H   6.38790505  -1.33436169   2.41235457
