21
conf-34
 N  -8.61610927   3.46002995   3.78790918
 H  -8.79743557   2.59300487   4.29960897
 H  -8.22682042   4.13481714   4.45096326
 H  -9.50460826   3.82214189   3.44182939
 C  -7.65546135   3.23844769   2.68495498
 H  -8.02188463   2.43614901   2.03728738
 C  -6.30134562   2.83774962   3.26823118
 C  -7.47467411   4.52370066   1.86372776
 H  -7.21107521   5.32416968   2.56069042
 H  -8.43227691   4.78354232   1.41572379
 O  -5.70818048   3.60522786   4.04837776
 C  -6.43050187   4.41656088   0.79288005
 C  -6.49888700   4.24040262  -0.55457101
 H  -7.38337861   4.16352582  -1.16881238
 N  -5.08798765   4.42915289   1.09036215
 H  -4.71281204   4.49598618   2.03074969
 C  -4.41239919   4.28879870  -0.08024881
 H  -3.33657597   4.29295988  -0.12700577
 N  -5.23139257   4.16560285  -1.10129397
 N  -5.79866687   1.67104458   2.81561290
 H  -6.35011293   1.06650019   2.22863427
 C  -4.45483984   1.22707229   3.11358278
 H  -3.86264783   2.09718832   3.40060341
 C  -3.91268157   0.59597593   1.83844333
 C  -4.41928965   0.20038897   4.26710195
 H  -3.42732044  -0.27279021   4.26626689
 O  -4.58844902  -0.22659956   1.20974107
 C  -4.65175444   0.87642960   5.60203302
 H  -3.81816840   1.54426517   5.83926924
 H  -4.75201327   0.12773907   6.38599716
 H  -5.55712111   1.48513365   5.57372302
 O  -5.42938800  -0.78282366   4.10898181
 H  -5.27037233  -1.23343688   3.27065046
 N  -2.67082767   0.95193820   1.45818254
 H  -2.06000187   1.50902483   2.03879675
 C  -2.02670694   0.29921298   0.33932323
 H  -2.27241390  -0.76607261   0.37922507
 C  -0.52391023   0.50245543   0.54229502
 C  -2.52570375   0.85596879  -0.99841506
 H  -2.15446134   1.88028148  -1.11358314
 H  -3.61358290   0.91901635  -0.91381708
 O  -0.08421897   1.32977259   1.32061623
 C  -2.20321107   0.03440651  -2.25198369
 H  -1.13039278   0.07345333  -2.45547125
 C  -2.62218032  -1.42298628  -2.08068381
 H  -3.63199772  -1.47301569  -1.65575572
 H  -1.94726348  -1.97252527  -1.41809635
 H  -2.63204074  -1.94497969  -3.04039656
 C  -2.91866295   0.66260018  -3.44623593
 H  -4.00088405   0.60459444  -3.30875939
 H  -2.66554675   0.14736474  -4.37507048
 H  -2.64608887   1.71424860  -3.56124659
 N   0.27189068  -0.27237596  -0.22370250
 H  -0.07510115  -0.91461798  -0.91522850
 C   1.70667475  -0.11962815  -0.24899509
 H   1.95031985   0.94550645  -0.29609062
 C   2.15178865  -0.82554812  -1.53393020
 C   2.36598947  -0.71596085   0.99156823
 H   3.44860996  -0.58526221   0.95399824
 H   2.14136242  -1.78279343   1.06822016
 H   1.97440532  -0.21202878   1.87456698
 O   1.40925838  -1.58515277  -2.13512002
 N   3.41817790  -0.58492072  -1.92474835
 H   4.04480237   0.01952945  -1.41572254
 C   3.97109559  -1.23120456  -3.09336946
 H   3.67047981  -2.28270009  -3.08997213
 C   5.49018591  -1.11620868  -2.97277289
 C   3.43009469  -0.60968681  -4.40150806
 H   2.34770498  -0.72508402  -4.37137754
 H   3.66318049   0.45620846  -4.41323415
 O   6.00418811  -0.26226362  -2.25603303
 C   4.02409240  -1.28969239  -5.58838599
 C   5.07620127  -0.69120150  -6.29066932
 H   5.32868121   0.34305303  -6.06534144
 C   3.67070638  -2.61079870  -5.88572542
 H   2.83304512  -3.05448439  -5.34506520
 C   5.83729525  -1.40317168  -7.17012354
 H   6.69637169  -0.96997023  -7.67337119
 C   4.39476989  -3.36468787  -6.76644116
 H   4.15075281  -4.39955703  -6.96920936
 O   6.27412793  -3.47660716  -8.18259003
 C   5.56577252  -2.80940970  -7.42631302
 N   6.21844089  -1.99994738  -3.69435973
 H   5.78038750  -2.46792914  -4.48805791
 C   7.67034981  -1.95114350  -3.68779567
 H   7.95728320  -1.63225122  -2.68312523
 C   8.17751704  -0.92268605  -4.70530620
 C   8.28260400  -3.32086272  -3.99833964
 H   9.36967304  -3.22437544  -4.00517323
 H   7.97162620  -3.67609278  -4.98149426
 O   8.78937766  -1.23351405  -5.72113236
 C   7.89919864  -4.34859913  -2.97547608
 O   7.28885409  -5.36328742  -3.20062551
 O   8.31823418  -4.00360120  -1.73895600
 N   7.88567978   0.37159185  -4.43559250
 H   7.43465058   0.60522309  -3.56192166
 C   8.42562752   1.40929544  -5.28987865
 H   8.13897041   1.19547783  -6.32470189
 C   9.94390202   1.41336912  -5.27981427
 C   7.87140262   2.77272976  -4.87394742
 H   8.19402580   2.99228661  -3.85432918
 H   6.78097525   2.68173346  -4.85983124
 O   10.62972608   1.62485683  -6.25008522
 C   8.26802347   3.90131548  -5.81327462
 H   9.35518851   4.00958514  -5.83903959
 H   7.96304889   3.62632106  -6.82755745
 C   7.63190637   5.22180479  -5.41335505
 H   6.54229206   5.12079402  -5.40865704
 H   7.93216657   5.46592037  -4.38903032
 C   8.02124254   6.38331902  -6.30777317
 H   9.11177061   6.43602981  -6.36617493
 H   7.67965219   7.32378013  -5.87165827
 N   7.47353557   6.25439459  -7.68300037
 H   7.74992222   7.03300548  -8.28154273
 H   6.45462010   6.21498484  -7.67149829
 H   7.80161985   5.39891379  -8.12927286
 O   10.45801757   1.20336559  -4.05144069
 H   11.41675826   1.24259479  -4.14774065
 H   8.03484020  -4.71115295  -1.14560194
