21
conf-747
 N  -5.89363249   2.37198676   1.36656106
 H  -6.50806389   3.17353814   1.35272465
 H  -6.19925090   1.70115413   0.67085088
 C  -4.52822795   2.75642402   1.07009951
 H  -4.45196467   3.51231656   0.26730419
 C  -3.82349549   1.50494259   0.51783142
 C  -3.85495537   3.35309230   2.31054375
 H  -2.80506110   3.57191350   2.08738371
 H  -4.33513462   4.30920993   2.53265348
 O  -4.46053251   0.51567235   0.19110484
 C  -3.94347993   2.44412069   3.53848036
 H  -3.20691677   2.75643576   4.28601594
 H  -3.71960858   1.40827588   3.28010978
 C  -5.28053169   2.52413670   4.23326634
 O  -5.93537382   3.52761132   4.37373171
 O  -5.66024254   1.33051342   4.73671927
 N  -2.48721559   1.58387742   0.38263270
 H  -1.95376512   2.40126324   0.62551217
 C  -1.72367085   0.47181815  -0.13135563
 H  -2.05336705  -0.44879006   0.36450213
 C  -0.26773718   0.77674533   0.19617919
 C  -1.92400342   0.28938635  -1.65181928
 H  -1.35595087   1.05249341  -2.18645082
 H  -2.98092224   0.44898084  -1.86450975
 O   0.10256384   1.91092360   0.47622354
 C  -1.53381979  -1.08451286  -2.10077887
 C  -0.37971930  -1.47696037  -2.71608562
 H   0.46971985  -0.89726963  -3.02047660
 C  -2.30636808  -2.27420968  -1.87242988
 C  -1.57542408  -3.35526148  -2.38949187
 C  -3.54134992  -2.50069876  -1.25189442
 H  -4.10891983  -1.67871358  -0.82537460
 N  -0.40544527  -2.84394938  -2.90446553
 H   0.32409013  -3.37867836  -3.33403295
 C  -3.27495959  -4.87105651  -1.72011702
 H  -3.67379528  -5.87636043  -1.65348298
 C  -2.04324213  -4.66939613  -2.32457935
 H  -1.46742401  -5.49333491  -2.73123205
 C  -4.01856207  -3.80155482  -1.19017936
 H  -4.97482421  -4.00323593  -0.72317884
 N   0.58402534  -0.27791309   0.12860750
 H   0.26787175  -1.09969645  -0.36612828
 C   2.02738238  -0.06548735   0.19293128
 H   2.18821140   0.66434258   0.98709468
 C   2.51386393   0.49104679  -1.14313681
 C   2.72282375  -1.37767767   0.56398846
 H   2.47879562  -2.12203682  -0.19465854
 O   2.92011894  -0.22652777  -2.05500119
 C   4.21767208  -1.24509564   0.75180421
 H   4.69558040  -0.90071698  -0.16318453
 H   4.64218533  -2.21184534   1.02386238
 H   4.42844613  -0.52850903   1.54672661
 O   2.15972606  -1.89525697   1.84073109
 H   2.60214062  -1.44465681   2.59129806
 N   2.43531375   1.83533737  -1.27554739
 H   1.86427269   2.34594004  -0.61396858
 C   2.70490837   2.44353870  -2.56586115
 H   2.11985356   1.93467337  -3.34183278
 C   4.16010080   2.26613694  -2.96144325
 C   2.32426182   3.92471750  -2.51676319
 H   2.97927932   4.42839526  -1.80331516
 H   1.30479659   3.98368217  -2.12195833
 O   4.53689607   1.97008187  -4.06931530
 C   2.38023797   4.61056219  -3.87340870
 H   3.37859714   4.52030543  -4.30484536
 H   1.69349471   4.11161557  -4.56236256
 C   1.99253407   6.08221599  -3.78048110
 H   1.00768869   6.17794968  -3.32178097
 H   2.70353373   6.60882166  -3.13857200
 N   1.98520833   6.77376818  -5.06479248
 H   2.91755065   6.91039240  -5.42387183
 N  -0.13632389   5.96331549  -5.63723697
 H  -0.76990468   5.86215805  -6.41635899
 H  -0.52223393   6.49822190  -4.87446845
 N   1.38429293   6.34324846  -7.32953462
 H   2.34349970   6.63470958  -7.49798739
 C   1.11394116   6.37527668  -6.07855190
 O   5.00843282   2.52260986  -1.94472295
 H   1.18905627  -1.72446845   1.90034026
 H   5.89733926   2.40376580  -2.30169040
 H  -6.50938583   1.48154722   5.17416484
