21
conf-205
 N  -5.31322719   0.86903536   3.64013167
 H  -5.69277444   1.67010242   3.14677984
 H  -5.78218452   0.05790830   3.24655707
 C  -3.88613421   0.73499747   3.35209830
 H  -3.36924001   1.67793893   3.57585047
 C  -3.64326211   0.33195302   1.89164076
 C  -3.29789065  -0.32323519   4.29087738
 H  -3.56571854  -0.00778092   5.30064125
 H  -3.79696957  -1.28046994   4.10172418
 O  -4.40227874  -0.42630275   1.30301003
 C  -1.77422851  -0.46324637   4.20845230
 H  -1.46338197  -0.80392553   3.21532781
 H  -1.42283701  -1.17741240   4.96642792
 C  -1.20796920   0.90612870   4.40282552
 O  -1.11127929   1.74674876   3.53309590
 O  -0.92298143   1.27427452   5.69210380
 N  -2.50968275   0.80453509   1.32009903
 H  -1.93957442   1.54130039   1.74581787
 C  -2.13011874   0.41826266  -0.01983569
 H  -2.38145948  -0.63824214  -0.15073961
 C  -0.63339774   0.63326282  -0.11341041
 C  -2.88019925   1.25960901  -1.06572316
 H  -2.75005488   2.30789865  -0.80118786
 H  -3.93943724   1.03172157  -0.95593615
 O  -0.13871950   1.73896287   0.06401029
 C  -2.40801891   1.06187274  -2.48547694
 C  -2.48828899  -0.06418731  -3.25437484
 H  -2.91071356  -1.03052441  -3.00806451
 C  -1.72015961   2.04463407  -3.27236566
 C  -1.41802830   1.45856315  -4.51162243
 C  -1.27087624   3.33532075  -2.98682674
 H  -1.48145529   3.78155820  -2.02372420
 N  -1.92062673   0.17631910  -4.49180631
 H  -1.83406556  -0.49333260  -5.23574832
 C  -0.20915670   3.39632620  -5.16840209
 H   0.38686840   3.93406724  -5.89503114
 C  -0.63972443   2.10655213  -5.46675877
 H  -0.36939789   1.61713608  -6.39937986
 C  -0.52321734   4.00840609  -3.94538856
 H  -0.17248168   5.01216208  -3.74539957
 N   0.09540561  -0.46788213  -0.42539952
 H  -0.40463273  -1.31458482  -0.63503055
 C   1.49664837  -0.42093181  -0.81477640
 H   1.72311153  -1.45069593  -1.10321123
 C   2.37140880  -0.04500607   0.38066677
 C   1.76131901   0.47105598  -2.03712694
 H   1.63338122   1.51558284  -1.75196092
 O   3.01463167   0.99029286   0.45922840
 C   3.11792157   0.20455462  -2.65174876
 H   3.90598476   0.37965916  -1.91958821
 H   3.30616009   0.86180153  -3.50418862
 H   3.17965675  -0.83399911  -2.97931600
 O   0.71584106   0.16142487  -3.04325572
 H  -0.23604751   0.28491908  -2.76360591
 N   2.37494882  -0.94631244   1.40238718
 H   2.00642550  -1.86641054   1.24878292
 C   3.36471727  -0.80289310   2.45946476
 H   3.13879410   0.10337411   3.02931157
 C   4.77026569  -0.59776108   1.91211723
 C   3.36238932  -2.02708089   3.37635674
 H   4.21350194  -1.95548280   4.05313818
 H   3.51684051  -2.91725505   2.76715686
 O   5.59842769   0.12121804   2.41043184
 C   2.08088303  -2.16514782   4.17851096
 H   1.95380070  -1.28978484   4.82159428
 H   1.22449417  -2.19525252   3.49775873
 C   2.07141127  -3.41164990   5.04455554
 H   1.07881022  -3.55664388   5.48761601
 H   2.28984534  -4.28478769   4.42861971
 N   3.08869346  -3.30959680   6.07830469
 H   3.14537412  -2.41152093   6.52804549
 N   3.05071253  -5.62240197   6.46334677
 H   3.22809557  -6.31249186   7.17776110
 H   2.13120159  -5.69602714   6.05918480
 N   4.10868544  -4.26198913   7.99586497
 H   4.37102505  -3.29493163   8.16446627
 C   3.42077777  -4.36054000   6.91865825
 O   5.01869094  -1.37044316   0.82871943
 H   0.75162512   0.66364605  -3.88941593
 H   5.93447418  -1.19735667   0.57987572
 H  -0.72392830   2.22374136   5.68252387
