21
conf-102
 N  -4.29193095   0.55941344   5.27873325
 H  -5.21115430   0.21363381   5.02606302
 H  -3.71691877  -0.27367898   5.37398243
 C  -3.75104576   1.34877779   4.18481035
 H  -4.48711761   2.10853077   3.90943774
 C  -3.43816726   0.51147302   2.94391143
 C  -2.47058187   2.05749265   4.63705251
 H  -1.80839856   1.29405153   5.05646965
 H  -1.95754203   2.49172472   3.77757152
 O  -3.27587346  -0.69597872   2.98349111
 C  -2.73040897   3.13213342   5.69210145
 H  -1.77649194   3.54217478   6.03902951
 H  -3.24030476   2.71174792   6.56150152
 C  -3.55855065   4.28449010   5.20257576
 O  -4.45818711   4.81138335   5.80730135
 O  -3.16636673   4.71598269   3.97801288
 N  -3.34262644   1.23897145   1.78655122
 H  -3.23246271   2.23408810   1.89447727
 C  -2.66067868   0.68395237   0.63454453
 H  -2.82537435  -0.39435633   0.65396993
 C  -1.16043040   0.98916198   0.75742251
 C  -3.20112135   1.26069613  -0.68585088
 H  -2.54160475   0.94594994  -1.49973599
 H  -3.15680619   2.35053689  -0.63301921
 O  -0.74006475   1.95994426   1.37046946
 C  -4.60640639   0.81576937  -0.97902391
 C  -5.75276511   1.53005753  -0.77111109
 H  -5.87603343   2.53291355  -0.39121499
 C  -5.01515407  -0.46306295  -1.50620530
 C  -6.41860609  -0.46418385  -1.56295914
 C  -4.31024496  -1.59753668  -1.93106570
 H  -3.22336912  -1.62273173  -1.92166428
 N  -6.84726595   0.76277846  -1.11030670
 H  -7.80203709   1.05752151  -1.04458987
 C  -6.43287131  -2.67905077  -2.41607345
 H  -6.96388812  -3.55424787  -2.77061445
 C  -7.15232188  -1.56587047  -2.01042147
 H  -8.23606444  -1.54404791  -2.03785232
 C  -5.02674506  -2.69351053  -2.38071461
 H  -4.49792666  -3.57920567  -2.71196095
 N  -0.33877906   0.14158084   0.09356481
 H  -0.69475390  -0.62248042  -0.45891701
 C   1.08622383   0.37986038   0.05461615
 H   1.23577053   1.46089441  -0.00471772
 C   1.63664644  -0.30942581  -1.18615365
 C   1.77388328  -0.08136988   1.36853476
 H   1.34991202   0.53284608   2.15963750
 O   1.21307790  -1.39066338  -1.56823417
 C   1.61659748  -1.55521247   1.67388117
 H   0.56338503  -1.81147773   1.78421380
 H   2.13580771  -1.80594644   2.59943617
 H   2.02562587  -2.15307206   0.85902036
 O   3.22870236   0.21642611   1.33639535
 H   3.68505216  -0.41395514   0.70937067
 N   2.64961668   0.34313930  -1.81194267
 H   2.99146840   1.19926737  -1.40964473
 C   3.51467213  -0.35965982  -2.73819914
 H   2.90065535  -1.14561358  -3.18967944
 C   4.64666634  -1.09371638  -2.03774678
 C   4.06184782   0.56086690  -3.82340400
 H   4.82720057   0.01552526  -4.37690368
 H   4.55777549   1.41219621  -3.35240203
 O   5.63336833  -1.50996546  -2.58355570
 C   2.97661221   1.03544988  -4.77627366
 H   2.48382453   0.16860932  -5.22258142
 H   2.20734942   1.58483165  -4.23410884
 C   3.53802521   1.91710262  -5.88390475
 H   4.07284097   2.77421282  -5.46676523
 H   4.26715872   1.34523320  -6.46496190
 N   2.54131330   2.39695878  -6.82521231
 H   2.21346994   1.68997535  -7.46314690
 N   1.86783599   4.15349561  -5.42772164
 H   1.05785223   4.67193104  -5.12579290
 H   2.40767584   3.77151374  -4.67140008
 N   0.42107212   3.43874222  -7.06800936
 H   0.34674376   2.78711686  -7.84415169
 C   1.54295617   3.29418984  -6.46592414
 O   4.43056566  -1.28398299  -0.70397419
 H   3.42270711   1.13049834   1.05072007
 H   5.17118844  -1.84079118  -0.40881127
 H  -3.73021703   5.47064529   3.76485044
