21
conf-549
 N  -2.43458671  -1.96222410   4.17474647
 H  -3.07039827  -2.37123163   3.48953822
 H  -2.46909807  -2.49615482   5.03984674
 H  -2.78324506  -1.02193838   4.35999515
 C  -1.06233220  -1.89187213   3.63379283
 H  -0.80541711  -2.85580024   3.17709260
 C  -1.03638519  -0.83409471   2.52731356
 C  -0.04078309  -1.60012248   4.73008404
 H   0.95787114  -1.58207422   4.29081717
 H  -0.04825841  -2.42896117   5.44006480
 O  -2.03596668  -0.20193950   2.22431524
 C  -0.29791278  -0.29377116   5.46535844
 H  -1.20943076  -0.34870669   6.06534402
 H  -0.43755413   0.52829949   4.76112076
 C   0.84526462   0.07246544   6.37583172
 O   1.92775050  -0.45708446   6.40468713
 O   0.52822920   1.11582890   7.17764965
 N   0.16093259  -0.65241484   1.93128777
 H   0.97660879  -1.18302383   2.19184915
 C   0.35537639   0.24492302   0.81676083
 H  -0.02464935   1.23800481   1.08258345
 C   1.86499807   0.30719845   0.59825831
 C  -0.38934413  -0.21109198  -0.45470644
 H  -1.45369059  -0.07545964  -0.27722666
 H  -0.10163971   0.46049969  -1.26896860
 O   2.63426599  -0.48450396   1.11223419
 C  -0.10838201  -1.64282935  -0.80975938
 C   1.06069853  -2.01276345  -1.47595046
 H   1.77749895  -1.24526233  -1.74674680
 C  -1.00298843  -2.65712198  -0.45106914
 H  -1.91089218  -2.39751788   0.07884540
 C   1.33465523  -3.34242694  -1.78636980
 H   2.24405357  -3.61490935  -2.30469649
 C  -0.74207821  -3.99249822  -0.75641032
 H  -1.45603551  -4.75703625  -0.47194740
 O   0.74093314  -5.62256278  -1.75523754
 H   0.03893430  -6.20316102  -1.45130796
 C   0.42862716  -4.33360048  -1.42658784
 N   2.28095797   1.26720830  -0.27683615
 H   1.67152079   2.05434888  -0.41920420
 C   3.70134272   1.54542017  -0.40025707
 H   4.22774077   0.58643016  -0.41143596
 C   4.23899615   2.32077103   0.79016991
 C   3.99597200   2.31595355  -1.68601382
 H   3.38794505   3.22146515  -1.70312716
 H   5.04226262   2.63052442  -1.66198610
 O   5.37918131   2.27176422   1.17256579
 C   3.74294573   1.48823161  -2.93423409
 H   2.69792929   1.16750821  -2.96000624
 H   4.34729258   0.57484289  -2.88769749
 C   4.06063628   2.23886053  -4.21357763
 H   3.45589684   3.15066242  -4.25999005
 H   5.10802447   2.55807017  -4.20365721
 C   3.80707221   1.41199853  -5.46538095
 H   4.42364494   0.51033294  -5.43352094
 H   2.76534576   1.08206355  -5.47418268
 N   4.07190212   2.08979253  -6.72815716
 H   5.03760428   2.39657736  -6.76129520
 H   3.50820045   2.92976570  -6.79595822
 O   3.30520601   3.12176499   1.35058041
 H   3.74295712   3.58429949   2.07466803
 H   1.31647757   1.29163607   7.70906607
