21
conf-126
 N   0.60312902  -3.50852642   3.40605371
 H   1.31810093  -2.87706793   3.77257970
 H   0.22260384  -4.05926948   4.17325546
 H   1.05485838  -4.14100499   2.74077912
 C  -0.46377410  -2.77635974   2.68620635
 H  -0.80435665  -1.93678026   3.30006386
 C   0.11664703  -2.26040638   1.37488237
 C  -1.64236868  -3.70325137   2.39889027
 H  -1.93143456  -4.16990500   3.34491798
 H  -1.29641841  -4.49909812   1.73910407
 O   0.79262148  -2.98956424   0.66062380
 C  -2.84820813  -3.00727784   1.77646699
 H  -2.57995811  -2.58987864   0.79929344
 H  -3.20669432  -2.18484297   2.39670157
 C  -4.00528681  -3.93823604   1.55064559
 O  -5.15005664  -3.71957925   1.85325194
 O  -3.62426088  -5.07516500   0.92335819
 N  -0.21405819  -0.98109811   1.06432934
 H  -0.71756762  -0.44552162   1.74978903
 C   0.19773389  -0.25630206  -0.13721328
 H  -0.48685559   0.59566448  -0.18938902
 C   1.62554019   0.27687220   0.02948627
 C   0.05875382  -1.07824830  -1.42047658
 H   0.82774473  -1.84337734  -1.44603305
 H  -0.90458789  -1.58573527  -1.37234906
 O   2.62059439  -0.39900002  -0.20692822
 C   0.11736013  -0.21878680  -2.65603888
 C  -1.04881333   0.26955735  -3.25003650
 H  -2.01266655   0.00120697  -2.83546209
 C   1.34274534   0.13747249  -3.22952706
 H   2.26159995  -0.22214543  -2.77862428
 C  -1.00447493   1.08740740  -4.37511755
 H  -1.91284781   1.46204085  -4.82975363
 C   1.39990790   0.95442275  -4.35825800
 H   2.36063861   1.21104376  -4.78932389
 O   0.21556610   2.23489455  -6.03342813
 H   1.12056070   2.39420453  -6.31228722
 C   0.22387448   1.43047590  -4.92926269
 N   1.72678947   1.54495808   0.48778527
 H   0.91302040   2.11199171   0.66083188
 C   3.04216876   2.11496540   0.71182497
 H   3.68891162   1.32640076   1.10502979
 C   2.98060465   3.21868709   1.74338273
 C   3.66435403   2.63289692  -0.59409132
 H   3.58686453   1.81856395  -1.31887634
 H   3.07358288   3.46619149  -0.97709299
 O   3.85471853   3.48036710   2.52994309
 C   5.12039695   3.04483402  -0.43375540
 H   5.68155008   2.19159771  -0.03347221
 H   5.20903121   3.84584654   0.30025218
 C   5.73613545   3.47729218  -1.75519976
 H   5.60607747   2.67204263  -2.48781000
 H   5.19429031   4.34689322  -2.14042525
 C   7.21315444   3.81086100  -1.66118456
 H   7.75260226   2.93536759  -1.26992165
 H   7.60048566   4.00459302  -2.66528523
 N   7.42816363   5.02214465  -0.86149470
 H   8.39068925   5.32297369  -0.94721692
 H   7.29282488   4.81444950   0.12078178
 O   1.83500880   3.93050863   1.65934377
 H   1.88350936   4.62156710   2.33118607
 H  -4.42614974  -5.59766541   0.79951136
