21
conf-123
 N   0.22426325  -4.51139498   2.96634376
 H   1.24203343  -4.46466495   3.01231209
 H  -0.12115903  -4.92246685   3.83133803
 H  -0.00809914  -5.13329301   2.19204699
 C  -0.34018981  -3.17080945   2.72118678
 H  -0.03222870  -2.50275019   3.53427283
 C   0.24725764  -2.63648008   1.40939183
 C  -1.86151390  -3.19021854   2.66451146
 H  -2.17995736  -3.90478306   1.90724793
 H  -2.21378869  -2.21442904   2.33138111
 O   0.86021124  -3.36848531   0.64822130
 C  -2.51516922  -3.52426159   3.99828304
 H  -2.18874698  -2.83958011   4.78365270
 H  -2.25424057  -4.53292068   4.33653488
 C  -4.01743675  -3.47733494   3.91968775
 O  -4.67396517  -3.46675286   2.90911742
 O  -4.58071587  -3.47614250   5.15092907
 N   0.01792762  -1.31712454   1.17287117
 H  -0.45424787  -0.78708914   1.88394052
 C   0.45974510  -0.59206933  -0.01982559
 H  -0.12327107   0.33433590  -0.02082168
 C   1.93975678  -0.21624948   0.09149828
 C   0.17372568  -1.35623254  -1.31689689
 H   0.85611737  -2.19484352  -1.40384881
 H  -0.83053178  -1.76760570  -1.23032627
 O   2.85878716  -0.97068730  -0.19540684
 C   0.25410829  -0.46906997  -2.53072147
 C  -0.87880019   0.18000183  -3.02831142
 H  -1.84003937   0.01590233  -2.55628220
 C   1.47355486  -0.24681828  -3.17697187
 H   2.36403678  -0.73785178  -2.80030609
 C  -0.80429172   1.02853609  -4.12833665
 H  -1.68573378   1.52879715  -4.50920934
 C   1.56177098   0.60335714  -4.27873898
 H   2.51987823   0.75995793  -4.76238008
 O   0.43936567   2.08565424  -5.82719066
 H   1.33702236   2.14651962  -6.16315971
 C   0.41969480   1.24195871  -4.75285838
 N   2.19354865   1.04088502   0.54323078
 H   1.45526939   1.59375470   0.93921187
 C   3.56131196   1.43641935   0.82272728
 H   4.15603384   1.29405009  -0.08395199
 C   4.19404491   0.55725615   1.88553092
 C   3.59417030   2.90842106   1.24028622
 H   3.08525420   3.47766060   0.45823723
 H   3.01441320   3.02893602   2.15768619
 O   5.33547702   0.16655909   1.86227876
 C   5.00180943   3.45368708   1.42495362
 H   5.57303089   3.27543910   0.50669916
 H   5.52027718   2.90843296   2.21727641
 C   5.00521571   4.94056577   1.73929688
 H   4.47829522   5.48924039   0.95426154
 H   4.45899101   5.12142076   2.67086031
 C   6.40239305   5.50823076   1.87729375
 H   6.95084403   4.93492621   2.63970534
 H   6.93513688   5.37778314   0.92993443
 N   6.33424027   6.93980008   2.16585675
 H   7.26470753   7.33706317   2.20014778
 H   5.93253753   7.08546225   3.08449361
 O   3.35349479   0.30396998   2.91005492
 H   3.84519749  -0.24291672   3.53392598
 H  -5.53599053  -3.46783492   5.00541720
