21
conf-962
 N   0.14103235  -2.40090018   3.45098388
 H   1.08088947  -2.00763105   3.38107954
 H  -0.13751078  -2.39117807   4.43192170
 H   0.18378991  -3.36162374   3.11430461
 C  -0.80676485  -1.63154304   2.62099981
 H  -0.93950295  -0.64413183   3.06359394
 C  -0.23729195  -1.48941806   1.21081972
 C  -2.17714785  -2.30581367   2.53839759
 H  -2.08121886  -3.23218240   1.96070516
 H  -2.84103285  -1.64684257   1.97276811
 O   0.48315165  -2.34729707   0.73119392
 C  -2.80946366  -2.63986544   3.89151425
 H  -2.26849579  -3.46425122   4.36507479
 H  -3.84481138  -2.95238119   3.74925769
 C  -2.75947660  -1.45228323   4.80369111
 O  -1.92827236  -1.27088634   5.66150981
 O  -3.72379095  -0.54358146   4.53165570
 N  -0.59445248  -0.35767578   0.54701700
 H  -1.27497842   0.26091994   0.95115251
 C  -0.24650102  -0.13223387  -0.84691341
 H  -0.70137453   0.83416130  -1.08979093
 C   1.27177269   0.00411601  -1.06990808
 C  -0.84323089  -1.18739213  -1.79495332
 H  -0.58506849  -0.89749167  -2.81282605
 H  -0.36736538  -2.14548939  -1.60144177
 O   1.80760348  -0.36143835  -2.10750708
 C  -2.32582933  -1.27866020  -1.60895746
 C  -2.89692933  -2.29826582  -0.84543546
 H  -2.26010982  -3.04004602  -0.37911467
 C  -3.17511230  -0.31854998  -2.16055971
 H  -2.73751751   0.48773666  -2.73923954
 C  -4.27420702  -2.37319832  -0.66014162
 H  -4.71848934  -3.16631579  -0.07273419
 C  -4.55706591  -0.37967927  -1.98264435
 H  -5.19410689   0.37739739  -2.42640984
 O  -6.44651182  -1.53480035  -1.00115188
 H  -6.90515563  -0.81515105  -1.44214292
 C  -5.10453230  -1.41096713  -1.22519710
 N   1.95841215   0.61242518  -0.07616163
 H   1.53304439   0.79618008   0.81699341
 C   3.38635222   0.82055931  -0.18283694
 H   3.85293020  -0.07654272  -0.60001856
 C   3.92946531   1.03798997   1.21136615
 C   3.74330389   1.99481412  -1.10567138
 H   4.82983984   2.03796686  -1.19931420
 H   3.34637455   1.74034399  -2.08957463
 O   3.25823644   1.17769904   2.20277507
 C   3.20038426   3.33484376  -0.63610837
 H   3.65532713   3.59332700   0.32624217
 H   2.12512451   3.25226408  -0.45784559
 C   3.45604793   4.45624634  -1.63216932
 H   3.17943767   5.41326202  -1.17940327
 H   4.52771407   4.51807371  -1.85698751
 C   2.69251837   4.30176836  -2.93237378
 H   2.97848929   3.35809670  -3.41991927
 H   1.62022468   4.23742591  -2.71509150
 N   2.91981435   5.47058679  -3.78115996
 H   2.36820285   5.40103808  -4.62723748
 H   3.88764008   5.48781521  -4.08059741
 O   5.27474677   1.07721538   1.22254704
 H   5.53310822   1.21889151   2.14221691
 H  -3.59014394   0.17983207   5.15728389
