21
conf-231
 N   0.75080924  -2.33504459   3.38350109
 H   1.39826821  -1.55157004   3.49513000
 H   0.53300850  -2.71235339   4.30441267
 H   1.22410297  -3.05850016   2.83561866
 C  -0.47956380  -1.93636957   2.65772905
 H  -0.87122869  -1.01495908   3.09859540
 C  -0.09946145  -1.69769420   1.19938627
 C  -1.52825133  -3.03996582   2.76190006
 H  -1.57487019  -3.35466377   3.80689556
 H  -1.16872661  -3.89281529   2.18603342
 O   0.58725970  -2.51207231   0.59648390
 C  -2.92549233  -2.62466451   2.31504641
 H  -2.93285990  -2.27142320   1.28745158
 H  -3.29233284  -1.80933669   2.94565642
 C  -3.92395428  -3.73969611   2.40526627
 O  -4.67250180  -4.08621931   1.52509975
 O  -3.92210351  -4.32506530   3.62384517
 N  -0.53417825  -0.53704778   0.64594593
 H  -1.19805161   0.03134610   1.14208884
 C  -0.17851722  -0.12913228  -0.70364444
 H  -0.63449037   0.86011695  -0.81596138
 C   1.34299868   0.04281894  -0.88551618
 C  -0.74545687  -1.04190612  -1.80266920
 H  -0.34806631  -0.68782674  -2.75524027
 H  -0.36431266  -2.05084309  -1.65413254
 O   1.91450951  -0.25048646  -1.92441233
 C  -2.24445875  -1.03968539  -1.80614003
 C  -2.96033323  -2.16667163  -1.41684729
 H  -2.41996367  -3.06240322  -1.12297074
 C  -2.96701675   0.09891470  -2.17148570
 H  -2.42168908   0.98450332  -2.47828787
 C  -4.34683914  -2.16856577  -1.35950056
 H  -4.89017118  -3.03806102  -1.01782763
 C  -4.36061331   0.10960107  -2.15286231
 H  -4.89827506   1.00380403  -2.44858085
 O  -6.41563133  -1.07816581  -1.66851111
 H  -6.77555065  -0.23361859  -1.95169658
 C  -5.05166951  -1.02586330  -1.73368703
 N   1.99674974   0.59582756   0.16184680
 H   1.51070638   0.85580301   1.00037769
 C   3.40587995   0.92332113   0.04099494
 H   3.89602027   0.12672476  -0.52610288
 C   4.05584683   0.98989774   1.40489792
 C   3.62535817   2.24801074  -0.70969604
 H   3.08149939   2.17501304  -1.65171444
 H   3.18054824   3.06740843  -0.14307284
 O   5.17196655   0.61964131   1.66352164
 C   5.09430411   2.53224817  -0.98911009
 H   5.51865084   1.67821276  -1.52911922
 H   5.65740812   2.61676887  -0.05648858
 C   5.28479199   3.78978831  -1.82287303
 H   4.71501005   3.70614183  -2.75456132
 H   4.88417520   4.65438032  -1.28711032
 C   6.73635612   4.05398813  -2.16359442
 H   7.30347245   4.17511028  -1.23537624
 H   7.14958819   3.17716294  -2.68454006
 N   6.85300593   5.29216144  -2.93212605
 H   6.42251983   5.17352888  -3.84156383
 H   7.82645104   5.50669345  -3.10859326
 O   3.25225054   1.58020739   2.31877018
 H   3.74999685   1.62169573   3.14448841
 H  -4.60107254  -5.01016727   3.59859214
