21
conf-222
 N  -0.65601735  -2.67099282   3.72667378
 H   0.27867670  -2.36158657   3.99831549
 H  -1.17006537  -2.94974513   4.56002009
 H  -0.55015528  -3.48602382   3.11744500
 C  -1.38558456  -1.63277653   2.96537689
 H  -1.31249122  -0.67616877   3.49210341
 C  -0.74513782  -1.51942952   1.58541425
 C  -2.85491347  -2.02290691   2.82678102
 H  -3.23364731  -2.24622341   3.82751139
 H  -2.90634615  -2.94952908   2.25702320
 O  -0.41133131  -2.52099459   0.96640303
 C  -3.74031990  -0.97065428   2.17240352
 H  -3.43042332  -0.78496640   1.13855058
 H  -3.68310982  -0.01191021   2.69312915
 C  -5.18318101  -1.39746533   2.11494466
 O  -5.59752991  -2.51516067   2.28810778
 O  -5.99753294  -0.36023732   1.80977379
 N  -0.63024053  -0.25389571   1.10630005
 H  -0.87841617   0.50550157   1.71587722
 C  -0.12611848   0.11830917  -0.21489465
 H  -0.47473728   1.14501779  -0.36923858
 C   1.40284072   0.13674654  -0.22888856
 C  -0.67015075  -0.76487538  -1.34244209
 H  -0.22605783  -1.75215473  -1.27220535
 H  -1.74156941  -0.87775438  -1.17706223
 O   2.09541857  -0.86896771  -0.30140684
 C  -0.42845015  -0.16514157  -2.70363192
 C  -1.39932183   0.61607438  -3.33564669
 H  -2.36017735   0.76591697  -2.85962763
 C   0.79141878  -0.34950151  -3.36181042
 H   1.55909645  -0.94834231  -2.88551332
 C  -1.16479670   1.20236693  -4.57547717
 H  -1.92169673   1.80693928  -5.05908372
 C   1.03962515   0.23380842  -4.60300914
 H   1.99662268   0.07726256  -5.08814938
 O   0.23871942   1.61146875  -6.42366429
 H   1.11709955   1.40122190  -6.75007755
 C   0.05844597   1.01246913  -5.20910667
 N   1.97216266   1.36784644  -0.17608337
 H   1.41940489   2.17731997   0.04129935
 C   3.41787073   1.48704569  -0.16020273
 H   3.81544594   0.92639544  -1.01107533
 C   4.01210458   0.85648761   1.08711645
 C   3.81562654   2.96149342  -0.27697616
 H   3.27199386   3.37125588  -1.13142149
 H   3.46836606   3.49222165   0.61069170
 O   5.00745443   0.17489126   1.10928716
 C   5.30927509   3.16802616  -0.47442588
 H   5.62274584   2.63422038  -1.38004752
 H   5.86171010   2.71137462   0.35367862
 C   5.70389089   4.63377156  -0.59336223
 H   5.37552704   5.18068711   0.29870082
 H   6.79467423   4.71326273  -0.61926032
 C   5.14631090   5.32626210  -1.81981356
 H   5.46600516   4.78539660  -2.71640984
 H   4.04793887   5.29355631  -1.79711841
 N   5.67092184   6.68950991  -1.89389006
 H   5.29718113   7.23838834  -1.12845822
 H   5.35257790   7.14192803  -2.74185935
 O   3.33131677   1.19444903   2.20229034
 H   3.79061766   0.77378189   2.93837831
 H  -6.89136917  -0.72597327   1.77302792
