21
conf-549
 N  -7.56092235   2.69033884   3.46641670
 H  -8.53984668   2.87021349   3.25764091
 H  -6.98441831   3.48664837   3.18285510
 H  -7.44105891   2.58857766   4.47302321
 C  -7.03000010   1.51795969   2.74812544
 H  -7.54410572   1.36521905   1.79777899
 H  -7.14816957   0.60711129   3.33139694
 C  -5.54980826   1.76630984   2.46287993
 O  -5.04308496   2.87021964   2.58889105
 N  -4.85471640   0.69549303   2.03435953
 H  -5.25957437  -0.21353106   1.88853024
 C  -3.46626906   0.83091768   1.68612404
 H  -2.87487259   1.17290234   2.53992946
 H  -3.32599186   1.58593264   0.90720955
 C  -2.98173522  -0.53665963   1.20456715
 O  -3.72401267  -1.49965844   1.13208456
 N  -1.67945445  -0.60153084   0.86821579
 H  -1.06530988   0.19412950   0.87745652
 C  -1.13362344  -1.83299686   0.36240941
 H  -1.65126959  -2.14943511  -0.54912706
 H  -1.27474872  -2.64646634   1.07828756
 C   0.34581388  -1.60103682   0.08495422
 O   0.84792461  -0.48458208   0.15520434
 N   1.05477871  -2.69738952  -0.24982405
 H   0.57349321  -3.56794497  -0.39911726
 C   2.48106827  -2.62190910  -0.50520778
 H   2.94573199  -3.58746751  -0.32328490
 H   2.88398171  -1.88889164   0.19777407
 C   2.82428164  -2.21149388  -1.93522739
 O   3.42530077  -2.94769528  -2.69598372
 N   2.41678577  -0.96457076  -2.27947367
 H   1.96608973  -0.37257917  -1.59590598
 C   2.71377140  -0.44258775  -3.58360348
 H   3.03671779  -1.28458037  -4.19806336
 H   1.83088808   0.00279385  -4.04529819
 C   3.80987847   0.62591674  -3.64470041
 O   3.91064644   1.35473796  -4.61270785
 N   4.64286298   0.67731926  -2.57217525
 H   4.59524017  -0.04880637  -1.87779900
 C   5.80767646   1.52228422  -2.60592715
 H   5.67875426   2.41261624  -1.98374585
 H   5.96043241   1.86715138  -3.63044170
 C   7.02676868   0.79409366  -2.09808967
 O   7.01917718  -0.28503599  -1.56439452
 O   8.14683808   1.51576719  -2.28990864
 H   8.87217003   0.99029563  -1.92709318
