21
conf-472
 N  -3.84263652   2.76866893   0.75257630
 H  -3.55253129   3.13652227   1.65663735
 H  -3.51319023   1.80693995   0.67924425
 H  -4.86074471   2.73724875   0.71779903
 C  -3.31376475   3.55808669  -0.37687818
 H  -2.22580303   3.48142990  -0.40736450
 H  -3.56640178   4.61475748  -0.26941098
 C  -3.88164913   3.06286447  -1.70139596
 O  -4.95720741   2.47671486  -1.78365028
 N  -3.13354580   3.39799429  -2.79368674
 H  -2.15544145   3.56248298  -2.61931736
 C  -3.44576841   2.81613654  -4.09727609
 H  -3.07397555   3.47225156  -4.88314122
 H  -4.53236224   2.74738402  -4.15501721
 C  -2.76287553   1.45949715  -4.25210575
 O  -1.69996063   1.32939321  -4.82889845
 N  -3.40306581   0.42224252  -3.62326647
 H  -4.15584307   0.69148985  -2.99824514
 C  -2.57978851  -0.64720226  -3.11642472
 H  -1.84570509  -0.90594769  -3.88005488
 H  -3.20128937  -1.52214546  -2.91477744
 C  -1.85180025  -0.23538474  -1.81684237
 O  -2.21043218   0.70344829  -1.09507260
 N  -0.78930105  -0.99982519  -1.47969471
 H  -0.35484416  -1.67011935  -2.09309785
 C  -0.02530778  -0.53805835  -0.35368356
 H  -0.59946407  -0.64907323   0.57062511
 H   0.17099423   0.53814331  -0.45163678
 C   1.27188139  -1.33657387  -0.31301896
 O   1.56452978  -2.13617279  -1.18310416
 N   2.07416672  -1.08737193   0.73949217
 H   1.84195911  -0.44884342   1.48061630
 C   3.32045624  -1.79479113   0.87108516
 H   3.15569428  -2.87672484   0.88193880
 H   3.97434449  -1.60362582   0.01646599
 C   3.98084614  -1.33460286   2.16719705
 O   3.44441183  -0.52748044   2.90312866
 N   5.20949353  -1.87111230   2.40210102
 H   5.46112603  -2.68455707   1.86827557
 C   5.82672204  -1.69272466   3.68910480
 H   5.33491922  -0.84483870   4.16973722
 H   6.88556186  -1.44506789   3.59652767
 C   5.73296144  -2.87171670   4.62862329
 O   6.25234814  -2.89924181   5.71150446
 O   5.00141279  -3.89098780   4.13018580
 H   4.99761429  -4.57896257   4.80742421
