21
conf-684
 N   0.07202362   1.47977411   5.35141232
 H   0.89860781   1.72126473   5.89627701
 H   0.07834252   0.47435411   5.18758691
 H  -0.75107315   1.66177684   5.92313733
 C  -0.00390890   2.21267078   4.07593369
 H   0.88089249   2.01664070   3.46748387
 H  -0.04867577   3.28767059   4.24540424
 C  -1.23377963   1.79797938   3.28544940
 O  -1.98407396   0.89510530   3.64945595
 N  -1.44518808   2.50332914   2.14696476
 H  -0.69912510   3.07643035   1.79074182
 C  -2.51191596   2.12204652   1.23165790
 H  -2.76657352   2.97073434   0.60185449
 H  -3.36621107   1.84663119   1.84998311
 C  -2.09855467   0.96487357   0.33161953
 O  -1.73651722   1.15462420  -0.83113090
 N  -2.08738008  -0.24817311   0.90205809
 H  -2.22699801  -0.31546359   1.90337388
 C  -1.62648593  -1.40932439   0.17725459
 H  -1.99142052  -1.30374770  -0.84545395
 H  -2.04399431  -2.31509080   0.61103793
 C  -0.10981969  -1.58046534   0.15409093
 O   0.42025800  -2.65109576   0.44362621
 N   0.60058921  -0.49215897  -0.19764169
 H   0.11269375   0.27542393  -0.64110948
 C   2.04302858  -0.55834539  -0.28642152
 H   2.38023533  -1.18087877   0.54443297
 H   2.45904671   0.44303592  -0.18429723
 C   2.52602891  -1.12333202  -1.61801171
 O   3.05454197  -0.42826460  -2.46973297
 N   2.29216889  -2.44888104  -1.80148345
 H   1.84999138  -2.99991295  -1.07382161
 C   2.61320159  -3.05403054  -3.06902505
 H   3.61822199  -2.76775294  -3.38084506
 H   2.59226225  -4.13867075  -2.95053958
 C   1.68397421  -2.66477871  -4.23138736
 O   2.08461178  -2.64946517  -5.38142958
 N   0.39944842  -2.40686636  -3.87719742
 H   0.19548186  -2.30039383  -2.89984387
 C  -0.52350759  -1.86543374  -4.83886336
 H  -1.28831310  -2.59741249  -5.11631568
 H   0.02474655  -1.62083997  -5.74831993
 C  -1.26176584  -0.63849410  -4.35941037
 O  -1.79710149   0.15284151  -5.08542835
 O  -1.29864250  -0.56392751  -3.01866927
 H  -1.76475883   0.24869198  -2.75314250
