118
120
N         -0.68048       -0.39579       -6.65253
H         -0.92366        0.37199       -7.27485
H         -0.23967       -1.13782       -7.19414
H          0.43926        0.37188       -5.56902
C         -1.88628       -0.95451       -6.03203
H         -2.67420       -1.18177       -6.77088
C         -2.42806        0.09920       -5.05655
C         -1.46303       -2.29898       -5.36053
H         -0.81917       -2.05698       -4.51155
O         -1.87319        1.19316       -4.93120
C         -2.61063       -3.19044       -4.89626
H         -3.06372       -2.83762       -3.96814
H         -3.39024       -3.28661       -5.66332
H         -2.21188       -4.18929       -4.69387
O         -0.62942       -3.00901       -6.27908
H         -1.19826       -3.53933       -6.86127
N         -3.53248       -0.20095       -4.32428
H         -3.88368       -1.14629       -4.35177
C         -3.72127        0.53945       -3.08150
H         -3.86838        1.58682       -3.35382
C         -2.39061        0.44076       -2.29458
C         -4.96556        0.05196       -2.30380
H         -5.80000        0.13380       -3.01487
O         -1.65254       -0.54825       -2.40186
C         -5.28564        0.96674       -1.10471
H         -4.46836        0.91201       -0.37372
H         -6.16079        0.54224       -0.60011
C         -4.85823       -1.40467       -1.83799
H         -4.03031       -1.54731       -1.13898
H         -4.71192       -2.11290       -2.66026
H         -5.78057       -1.70124       -1.32974
C         -5.59164        2.42691       -1.45336
H         -5.91426        2.97539       -0.56327
H         -6.39337        2.49592       -2.19751
H         -4.72704        2.96543       -1.86455
N         -2.06552        1.51906       -1.55803
H         -2.73122        2.27738       -1.49341
C         -0.72421        1.75342       -1.00691
H         -0.00900        1.41682       -1.76613
C         -0.45558        0.94192        0.27680
C         -0.52858        3.23585       -0.73093
H          0.48078        3.39382       -0.34683
H         -1.22704        3.58750        0.03365
H         -0.65848        3.81376       -1.65214
O         -0.38473        1.47697        1.38090
N         -0.22463       -0.36919        0.05724
H         -0.26712       -0.69202       -0.90409
C          0.32040       -1.26508        1.07276
H         -0.04878       -0.91193        2.04117
C          1.86480       -1.15367        1.03696
C         -0.13154       -2.69452        0.78498
H          0.32354       -3.37278        1.50935
H          0.28188       -2.98593       -0.18804
O          2.58383       -2.12818        0.83883
C         -1.66861       -2.84412        0.77952
H         -2.04025       -3.10132        1.77345
H         -2.12925       -1.89631        0.47627
C         -2.08453       -3.94821       -0.18223
N         -2.12462       -3.55635       -1.50052
H         -1.85552       -2.62922       -1.80621
H         -2.22362       -4.28632       -2.19081
O         -2.32739       -5.09162        0.16422
N          2.32761        0.11709        1.15893
H          1.67907        0.87874        1.34433
C          3.67789        0.50794        0.82238
H          4.38189        0.13031        1.57695
C          3.71776        2.04107        0.84363
C          4.15546       -0.04430       -0.55352
H          4.24926       -1.12429       -0.44024
H          5.16016        0.35218       -0.74313
O          2.68643        2.72159        0.86470
C          3.25491        0.27104       -1.72485
C          2.42485       -0.71108       -2.28002
H          2.39566       -1.69532       -1.82112
C          3.27282        1.53234       -2.33411
H          3.90242        2.32252       -1.93576
C          1.66290       -0.46606       -3.42544
H          1.06065       -1.25616       -3.86107
C          2.51741        1.79100       -3.47305
H          2.57971        2.76079       -3.95447
O          1.05061        1.08838       -5.19679
C          1.72285        0.78709       -4.03998
N          4.95227        2.59181        0.81366
H          5.75412        1.97539        0.83913
C          5.21171        4.01357        1.07427
H          4.46143        4.34237        1.80532
C          5.00807        4.91236       -0.16270
C          6.61329        4.18202        1.64659
H          6.80294        5.23438        1.86210
H          6.71696        3.60527        2.57066
H          7.37132        3.85672        0.92653
O          5.85807        5.70315       -0.54394
N          3.77474        4.81708       -0.76014
H          3.06487        4.32009       -0.22191
C          3.35568        5.93481       -1.58458
H          4.09726        6.09221       -2.37151
C          3.30868        7.21092       -0.73252
C          1.97958        5.64316       -2.20592
H          1.27729        5.39234       -1.40248
H          2.08296        4.74274       -2.82244
O          3.04920        7.23734        0.44670
C          1.40650        6.80634       -3.02645
H          2.18574        7.25746       -3.65412
H          1.06557        7.60601       -2.36090
C          0.22560        6.39803       -3.91411
H         -0.29320        7.28038       -4.30002
H         -0.50290        5.82188       -3.33912
N          0.66527        5.59754       -5.06478
H          1.32336        6.05820       -5.68074
N         -0.35202        3.55982       -4.53807
H         -0.46312        2.55962       -4.72260
H         -1.13568        4.01935       -4.10208
N          1.29932        3.64558       -6.14726
H          1.31135        2.61840       -6.08475
H          2.15989        4.08680       -6.44249
C          0.53603        4.27223       -5.23483
O          3.54724        8.31473       -1.47452
H          3.50215        9.07759       -0.86610
