118
120
N         -0.24095       -3.58493       -2.86789
H         -0.87854       -3.77807       -3.68064
H          0.12802       -4.43181       -2.43578
H          0.52701       -2.95702       -3.19002
C         -1.06424       -2.71171       -1.96262
H         -1.49688       -3.32579       -1.16837
C         -2.18618       -2.21536       -2.91050
C         -0.10072       -1.63103       -1.39502
H         -0.68638       -0.76909       -1.07359
O         -2.31079       -2.78060       -4.00350
C          0.71747       -2.16730       -0.22462
H          0.06925       -2.43377        0.61849
H          1.29687       -3.05550       -0.50532
H          1.43833       -1.41478        0.10107
O          0.77459       -1.27155       -2.45526
H          0.56025       -0.35536       -2.72306
N         -2.97369       -1.23166       -2.46453
H         -2.69692       -0.72730       -1.62029
C         -3.71519       -0.41645       -3.42403
H         -4.24935       -1.08472       -4.10836
C         -2.63919        0.34726       -4.25104
C         -4.74220        0.43041       -2.61585
H         -4.18185        0.89538       -1.79712
O         -1.43844        0.17098       -4.02317
C         -5.78255       -0.52265       -1.98488
H         -5.28529       -1.45017       -1.68167
H         -6.51987       -0.80171       -2.75073
C         -5.44181        1.54726       -3.40136
H         -5.90999        1.16589       -4.31995
H         -4.77600        2.37787       -3.65119
H         -6.25022        1.96643       -2.79647
C         -6.48586        0.07608       -0.76434
H         -7.20511       -0.63400       -0.34360
H         -7.03612        0.99127       -1.00769
H         -5.75670        0.32046        0.01722
N         -3.06769        1.18787       -5.21938
H         -4.05909        1.36220       -5.30179
C         -2.18098        2.19944       -5.82625
H         -1.26053        1.68789       -6.11904
C         -1.88830        3.23376       -4.71045
C         -2.85951        2.83744       -7.02737
H         -2.17560        3.53850       -7.51320
H         -3.73930        3.40476       -6.70968
H         -3.15248        2.07474       -7.75470
O         -2.60714        4.20547       -4.51495
N         -0.82645        2.88876       -3.92333
H         -0.51876        1.92401       -4.03101
C         -0.73136        3.35140       -2.54108
H         -0.60272        4.43810       -2.53300
C          0.49287        2.65955       -1.95004
C         -2.00876        2.96517       -1.74759
H         -2.31209        1.97772       -2.09572
H         -2.78842        3.66981       -2.03939
O          0.66020        1.44087       -2.06843
C         -1.87226        2.88950       -0.21861
H         -1.06138        3.51359        0.17155
H         -2.79373        3.25896        0.24790
C         -1.71324        1.45386        0.27710
N         -0.93299        1.28662        1.35802
H         -0.25793        1.99347        1.65020
H         -0.80600        0.34483        1.70175
O         -2.32553        0.50706       -0.24187
N          1.36652        3.43460       -1.27485
H          1.15658        4.41205       -1.12665
C          2.49822        2.85332       -0.57433
H          2.87457        2.03969       -1.19855
C          2.08072        2.29482        0.79399
C          3.61629        3.90801       -0.35963
H          3.15057        4.82936        0.00978
H          4.06839        4.13040       -1.33229
O          1.38357        2.95959        1.57115
C          4.63088        3.42321        0.64916
C          4.52282        3.82153        1.98545
H          3.79231        4.57724        2.25986
C          5.58088        2.44474        0.32601
H          5.69317        2.12416       -0.70758
C          5.30481        3.23829        2.97795
H          5.21807        3.56533        4.00945
C          6.35900        1.83989        1.30992
H          7.07257        1.06123        1.06069
O          6.91762        1.56867        3.61041
C          6.20580        2.21394        2.65218
N          2.59420        1.08471        1.07426
H          3.10865        0.59180        0.35102
C          2.88292        0.57705        2.41161
H          3.33571        1.38371        2.99761
C          3.89524       -0.55237        2.18605
C          1.66110        0.02707        3.15956
H          1.97477       -0.42058        4.10752
H          0.95606        0.83457        3.36902
H          1.17265       -0.75302        2.56774
O          3.89444       -1.18898        1.12962
N          4.73049       -0.83143        3.20537
H          4.82611       -0.18884        3.98732
C          5.65672       -1.94039        3.06731
H          6.15421       -1.86560        2.09526
C          4.88381       -3.25852        3.08034
C          6.71560       -1.91699        4.18079
H          7.14069       -0.90815        4.16601
H          7.51898       -2.60565        3.90407
O          3.75174       -3.41599        3.47329
C          6.16276       -2.28242        5.57075
H          6.18752       -3.37013        5.70621
H          5.10772       -1.99450        5.65249
C          6.93136       -1.61365        6.71620
H          7.99790       -1.85471        6.67569
H          6.56264       -1.97564        7.67990
N          6.82874       -0.14407        6.67874
H          7.41589        0.27905        5.96931
N          4.75253        0.01856        7.69893
H          3.87383        0.50378        7.81435
H          5.19137       -0.26542        8.56527
N          5.26838        1.31046        5.76802
H          4.41384        1.82285        5.98331
H          6.39662        1.63923        4.46131
C          5.58239        0.45047        6.69268
O          5.66702       -4.26567        2.63392
H          5.13820       -5.08255        2.70362
