89
91
N         -2.04196       -2.72365        0.56978
H         -2.41015       -3.28427        1.33622
H         -2.47596       -3.04524       -0.29443
H         -0.41419       -2.85879        0.30626
C         -2.33018       -1.29286        0.79837
H         -3.39269       -1.12896        1.03444
C         -2.00860       -0.56101       -0.51677
C         -1.45329       -0.79665        1.98039
H         -1.38702       -1.62444        2.70091
H         -0.43266       -0.64463        1.60839
O         -1.43475       -1.11946       -1.44622
C         -1.93126        0.45544        2.74341
H         -2.15152        1.25191        2.01922
C         -3.20545        0.18636        3.55821
H         -3.02231       -0.57857        4.32366
H         -4.04101       -0.15480        2.93589
H         -3.53847        1.09563        4.06954
C         -0.79904        0.96887        3.64784
H         -0.50343        0.20410        4.37768
H          0.08755        1.24055        3.06280
H         -1.11841        1.85370        4.20971
N         -2.35095        0.76497       -0.58489
H         -3.06511        1.11516        0.04502
C         -2.19901        1.45985       -1.86281
H         -2.61417        0.84347       -2.66652
C         -0.72769        1.67119       -2.23670
C         -2.92714        2.82959       -1.84601
H         -2.42205        3.49328       -1.13286
H         -2.78324        3.26993       -2.83809
O         -0.39372        1.78937       -3.42006
C         -4.38718        2.72990       -1.50653
C         -5.41595        2.41626       -2.36321
H         -5.39366        2.22783       -3.42830
C         -4.98148        2.89379       -0.20008
C         -6.37773        2.65675       -0.34110
C         -4.47958        3.23878        1.07048
H         -3.42459        3.46570        1.20896
N         -6.60653        2.36442       -1.66981
H         -7.51143        2.19941       -2.08398
C         -6.73584        3.07262        1.97925
H         -7.39817        3.15032        2.83634
C         -7.26434        2.74117        0.73743
H         -8.32811        2.56010        0.61012
C         -5.35781        3.32304        2.14410
H         -4.98239        3.60036        3.12496
N          0.15665        1.79450       -1.21725
H         -0.13132        1.56816       -0.27275
C          1.54668        2.19142       -1.40806
H          1.56960        2.94051       -2.21076
C          2.46003        1.02034       -1.85308
C          2.06968        2.80100       -0.10390
H          1.44399        3.65280        0.17582
H          3.09630        3.15625       -0.25160
O          3.52450        0.76980       -1.26707
O          1.98719        1.86273        0.96108
H          2.65171        1.18387        0.75030
N          2.00401        0.31550       -2.91223
H          1.17148        0.68592       -3.38025
C          2.79381       -0.70973       -3.59648
H          2.08716       -1.23887       -4.24799
C          3.34805       -1.77831       -2.62445
C          3.90173       -0.10332       -4.46385
H          4.44980       -0.88855       -4.98886
H          4.60247        0.46626       -3.84620
H          3.46105        0.57361       -5.20137
O          4.49100       -2.23936       -2.80983
N          2.50341       -2.17915       -1.65452
H          1.60753       -1.70384       -1.58383
C          2.69960       -3.26379       -0.66957
H          3.17431       -4.10664       -1.17799
C          1.31573       -3.71308       -0.18276
C          3.56915       -2.85668        0.56159
H          3.01321       -2.15570        1.19438
H          3.76125       -3.76241        1.14883
O          0.99729       -4.87267       -0.04203
C          4.83600       -2.22599        0.00160
H          5.19076       -2.92652       -0.75759
H          4.49138       -1.33131       -0.52353
C          6.05338       -1.78752        0.81449
H          6.66018       -2.63557        1.15476
H          5.78990       -1.20348        1.70411
C          6.86722       -0.85824       -0.10391
H          6.36557        0.10592       -0.21523
H          7.89476       -0.69743        0.23027
N          6.95864       -1.41094       -1.53238
H          7.47696       -0.76488       -2.13581
H          7.45296       -2.30953       -1.55340
H          6.01709       -1.58092       -1.97845
O          0.57131       -2.64519        0.09111
