152
154
N         -3.76864        7.65283        3.43477
H         -2.97594        7.89410        2.66302
H         -4.70206        7.64104        3.00660
H         -3.75015        8.35937        4.17192
C         -3.49146        6.27874        3.97011
H         -2.40765        6.20590        4.06754
C         -4.01583        5.34012        2.87573
C         -4.19686        6.00497        5.30816
H         -5.27600        6.11569        5.13898
O         -5.19490        5.43106        2.52846
C         -3.92086        4.55825        5.73959
H         -2.84397        4.37770        5.84369
H         -4.38854        4.35710        6.70666
H         -4.32112        3.83161        5.02834
C         -3.74683        6.98747        6.39778
H         -2.66387        6.92831        6.55924
H         -4.00096        8.03233        6.17575
H         -4.23882        6.74739        7.34524
N         -3.12086        4.45962        2.39194
H         -2.13431        4.65040        2.55371
C         -3.46860        3.45686        1.39543
H         -4.55995        3.38157        1.40627
C         -2.81703        2.14949        1.85797
C         -2.99575        3.81816       -0.03134
H         -1.90053        3.87228       -0.01174
O         -1.58938        2.05084        1.93429
C         -3.54990        5.18602       -0.46918
H         -3.14416        5.95869        0.19334
H         -4.63753        5.20263       -0.32065
C         -3.39207        2.69606       -0.99843
H         -4.48207        2.63793       -1.11643
H         -3.03975        1.72123       -0.64949
H         -2.94996        2.87899       -1.98044
C         -3.22116        5.54745       -1.92271
H         -3.47518        6.59415       -2.12461
H         -2.15889        5.40019       -2.13840
H         -3.78996        4.93231       -2.62849
N         -3.66475        1.14054        2.16125
H         -4.65898        1.32341        2.15147
C         -3.21796       -0.13252        2.73390
H         -2.35308        0.09368        3.36665
C         -2.77863       -1.08480        1.59845
C         -4.34230       -0.77158        3.55834
H         -3.94460       -1.69331        3.99456
H         -5.13520       -1.08498        2.87191
O         -3.45749       -2.04454        1.24489
C         -4.88775        0.13778        4.63290
C         -4.18010        0.34577        5.82382
H         -3.23152       -0.16331        5.97795
C         -6.11020        0.79699        4.45764
H         -6.68498        0.62565        3.54933
C         -4.68974        1.17611        6.82018
H         -4.13615        1.31219        7.74487
C         -6.62190        1.63648        5.44919
H         -7.57764        2.13010        5.29908
C         -5.91534        1.82107        6.63677
H         -6.31863        2.45877        7.41805
N         -1.59817       -0.75063        1.02222
H         -1.13427        0.12139        1.27813
C         -1.13141       -1.42766       -0.17263
H         -1.18184       -2.50830       -0.00906
C          0.30073       -0.96758       -0.41088
C         -2.02412       -1.04424       -1.38637
H         -1.93688        0.04103       -1.51731
H         -3.05138       -1.24974       -1.06816
O          0.71189        0.08701        0.08688
C         -1.77907       -1.74697       -2.73193
H         -0.78154       -1.48084       -3.10738
C         -1.87403       -3.27522       -2.61739
H         -2.84353       -3.57066       -2.19988
H         -1.10535       -3.70641       -1.96335
H         -1.76774       -3.74800       -3.59920
C         -2.79758       -1.23335       -3.75909
H         -3.82080       -1.48049       -3.45273
H         -2.62278       -1.67661       -4.74489
H         -2.73615       -0.14304       -3.86734
N          1.05535       -1.71288       -1.25856
H          0.62126       -2.49897       -1.72462
C          2.30319       -1.18733       -1.82809
H          2.81540       -0.67446       -1.01138
C          1.94567       -0.14519       -2.91235
C          3.19868       -2.28688       -2.37813
H          4.09977       -1.79465       -2.75578
H          2.72901       -2.75986       -3.24624
O          1.94511       -0.37581       -4.11412
C          3.57162       -3.33588       -1.30482
H          3.54514       -2.87455       -0.31205
H          2.88362       -4.18276       -1.31094
C          4.96211       -3.87982       -1.51973
O          5.27147       -4.99757       -1.84080
O          5.91398       -2.90242       -1.30836
N          1.59467        1.05075       -2.35826
H          1.42052        1.02466       -1.35149
C          1.00623        2.15035       -3.11015
H          1.68379        2.40985       -3.93130
C          0.90898        3.32044       -2.11659
C         -0.36095        1.80328       -3.69789
H         -0.23210        0.92009       -4.33411
H         -1.05433        1.54506       -2.89364
O         -0.13241        3.93914       -1.91672
C         -0.94057        2.91643       -4.54763
N         -2.27980        2.88812       -4.70864
H         -2.72399        3.56232       -5.31658
H         -2.85854        2.19563       -4.25661
O         -0.23617        3.76960       -5.10760
N          2.07710        3.57500       -1.47367
H          2.81253        2.88549       -1.59894
C          2.12030        4.28391       -0.20130
H          1.43317        3.78818        0.49637
C          1.67922        5.73927       -0.38588
C          3.55742        4.19328        0.35697
H          4.22265        4.74673       -0.31414
H          3.57335        4.70291        1.32656
O          2.15834        6.44090       -1.29459
C          3.99543        2.75174        0.49313
C          3.43181        1.93160        1.48356
H          2.71859        2.35190        2.18816
C          4.89329        2.16962       -0.40860
H          5.35380        2.78264       -1.18045
C          3.75841        0.58748        1.58019
H          3.31752       -0.04479        2.34295
C          5.22970        0.81489       -0.32825
H          5.93586        0.38191       -1.03228
O          4.94202       -1.30364        0.82414
H          5.51864       -1.62909        0.10618
C          4.66609        0.02008        0.67484
N          0.78403        6.14575        0.51414
H          0.46523        5.50888        1.24249
C          0.03106        7.39399        0.53752
H          0.68797        8.21890        0.84528
C         -1.02036        7.22235        1.66555
C         -0.62031        7.72780       -0.82500
H         -0.48750        6.85897       -1.47329
H         -1.69392        7.85349       -0.67504
O         -1.93114        8.10776        1.69108
C         -0.06323        8.98873       -1.50663
H         -0.64330        9.87175       -1.21790
H          0.96772        9.17745       -1.18048
C         -0.05999        8.86311       -3.03321
H         -1.04759        8.55178       -3.38971
H          0.18601        9.81837       -3.50881
N          0.93377        7.85384       -3.41680
H          1.68019        7.73757       -2.73268
N         -0.37479        6.60102       -4.90398
H         -0.56634        5.68149       -5.30003
H         -0.87791        7.40976       -5.23142
N          1.54868        5.70567       -3.98166
H          1.26592        4.83416       -4.42420
H          2.06742        5.65073       -3.10259
C          0.68595        6.72522       -4.09282
O         -0.88704        6.24706        2.44024
H          6.77966       -3.32381       -1.47024
