21
conf-879
 N  -5.45687012  -0.07220864   3.46890817
 H  -5.99438382   0.15053811   4.29855923
 H  -5.86038314   0.47355516   2.71290031
 C  -4.05461977   0.30258199   3.70019342
 H  -3.94432299   1.35461824   3.99927577
 C  -3.28380723   0.09988853   2.40104710
 C  -3.46302017  -0.59304904   4.82764132
 H  -2.41701372  -0.79189891   4.58240183
 H  -3.53882297  -0.09363278   5.79120081
 O  -2.89429015  -1.01336968   2.04607450
 C  -4.21948758  -1.83659292   4.89698090
 N  -4.13429496  -2.70026133   3.92539391
 H  -3.58754058  -2.38751418   3.10529068
 H  -4.66941773  -3.55657976   3.80927720
 O  -5.03300689  -2.03270358   5.91883743
 N  -3.11329854   1.19463657   1.62647982
 H  -3.18124749   2.11044470   2.03881363
 C  -2.28597897   1.11054837   0.43614678
 H  -2.45289224   0.12210973   0.01421953
 C  -0.82381905   1.27777138   0.83122074
 C  -2.68952114   2.20472639  -0.55560316
 H  -2.45998591   3.17514316  -0.11557439
 H  -2.06724406   2.10196191  -1.44969294
 O  -0.48798749   2.17773501   1.59631673
 C  -4.15210379   2.13809344  -0.92302312
 C  -4.98965248   3.22939345  -0.70192536
 H  -4.57870585   4.14107435  -0.28140968
 C  -4.69716682   0.97248157  -1.45728679
 H  -4.05161114   0.11922195  -1.62545387
 C  -6.34558403   3.16292891  -1.01627351
 H  -6.98013657   4.02401938  -0.83762696
 C  -6.04842152   0.90373733  -1.78583988
 H  -6.44904588  -0.01084951  -2.20956389
 C  -6.87812087   1.99790788  -1.56025680
 H  -7.93202126   1.94301565  -1.80964271
 N   0.05839342   0.41592130   0.27715635
 H  -0.20822229  -0.09671884  -0.55326120
 C   1.48644833   0.65496145   0.34690062
 H   1.65673685   1.66350205   0.72437888
 C   2.01627618   0.54570086  -1.08519265
 C   2.22603852  -0.34664865   1.22776324
 H   3.30474768  -0.17731471   1.13881331
 H   2.04898497  -1.36617908   0.88512935
 O   1.40492059  -0.03418542  -1.96421039
 C   1.94673503  -0.35949236   2.72249322
 N   1.38330389   0.73838963   3.28402537
 H   1.16784956   0.62871402   4.26008995
 H   0.77979467   1.36838960   2.75597509
 O   2.31506423  -1.31762023   3.38368681
 N   3.23509693   1.10330913  -1.28223171
 H   3.87015509   1.33416829  -0.52794419
 C   3.96537689   0.88123151  -2.49853185
 H   3.92152083  -0.17905815  -2.77881045
 C   5.44164286   1.23722762  -2.15089271
 C   3.46977888   1.69799676  -3.68669141
 H   4.04970561   1.39689924  -4.56319137
 H   2.43279259   1.40583320  -3.85598010
 O   6.25527222   1.25258606  -3.07488007
 C   3.56105692   3.20622455  -3.48504055
 H   3.07323666   3.48298264  -2.55227055
 H   4.60771453   3.51044307  -3.40686943
 C   2.91139019   3.95206726  -4.63490148
 H   3.41883788   3.68758681  -5.56691472
 H   1.86234963   3.64475833  -4.73044617
 N   3.01782843   5.40624612  -4.41343624
 H   2.95804199   5.68862664  -3.44629268
 N   2.01417336   5.89887749  -6.46836183
 H   1.91057468   6.57344206  -7.20858304
 H   2.17424677   4.94830362  -6.75487637
 N   2.46357741   7.59847629  -4.91249967
 H   2.29107793   8.27696576  -5.63782259
 H   3.12804179   7.89614904  -4.21155742
 C   2.51040068   6.29613972  -5.28236353
 O   5.64509705   1.44196978  -0.93153440
 H  -5.55368434  -2.86330574   5.85468320
