21
conf-315
 N  -5.74896301   2.52456075   2.81727843
 H  -5.66308267   3.43784739   2.38394863
 H  -6.30897312   1.96916810   2.17535468
 C  -4.44239095   1.90324894   2.94807311
 H  -3.77034734   2.58954777   3.46478803
 C  -3.84657960   1.50049413   1.59977630
 C  -4.59271069   0.65037133   3.85034334
 H  -5.09829187   1.02382918   4.74063169
 H  -5.23129057  -0.11477620   3.40738915
 O  -4.54513332   1.03309572   0.70874275
 C  -3.33391723   0.03446764   4.26896847
 N  -3.20607920  -1.25188505   4.48416152
 H  -3.99039714  -1.88733268   4.30364829
 H  -2.31647180  -1.68733963   4.71224814
 O  -2.34316933   0.85620966   4.51866564
 N  -2.50727889   1.62541588   1.48297281
 H  -1.93186685   1.99423987   2.22633797
 C  -1.83567846   1.17910009   0.28247010
 H  -2.26627238   0.21440011  -0.00918227
 C  -0.35071774   1.03440407   0.61387698
 C  -2.05448356   2.16631771  -0.88401646
 H  -3.09882109   2.47896713  -0.84812897
 H  -1.43042698   3.04748478  -0.72549063
 O   0.18012080   1.71242682   1.47403426
 C  -1.77913964   1.49674036  -2.20004246
 C  -0.54216128   1.56628453  -2.82000317
 H   0.26796669   2.12570547  -2.37186636
 C  -2.76542480   0.68970415  -2.77443219
 H  -3.72533604   0.61459189  -2.27222342
 C  -0.27068729   0.82440621  -3.96147157
 H   0.73832197   0.87991513  -4.36093728
 C  -2.51365841  -0.01216492  -3.95120386
 H  -3.29619040  -0.61989881  -4.38785834
 C  -1.25215888   0.04250067  -4.54839984
 H  -1.05224236  -0.50707625  -5.46140459
 N   0.32397141   0.10591965  -0.11959193
 H  -0.10156342  -0.19728182  -0.98330565
 C   1.78095730   0.04464362  -0.04931942
 H   2.06885101   0.44465110   0.91906488
 C   2.38339978   0.94087300  -1.15122356
 C   2.26890637  -1.39421743  -0.20911933
 H   1.97974482  -1.75692842  -1.19983350
 H   1.79161337  -2.02993977   0.53437247
 O   2.18013039   0.70435664  -2.35669370
 C   3.78407273  -1.49575903  -0.10682773
 N   4.26583176  -2.75175683   0.09747440
 H   5.26102361  -2.87684800   0.14766607
 H   3.65711840  -3.54315174   0.19218419
 O   4.51154656  -0.52435267  -0.23702551
 N   3.06886550   2.03519069  -0.75214966
 H   3.52648133   2.07528147   0.14952931
 C   3.83672349   2.70833331  -1.76603725
 H   4.26860688   1.92326883  -2.41602507
 C   4.99516659   3.41960650  -1.02524676
 C   3.00434787   3.67583460  -2.61386670
 H   1.98939632   3.26949942  -2.61648745
 H   2.95955132   4.65926900  -2.14545969
 O   5.68824636   4.19925348  -1.68440212
 C   3.49870008   3.76455876  -4.04963242
 H   4.50436425   4.19457436  -4.06124064
 H   3.57844759   2.75519665  -4.46668985
 C   2.57126084   4.57014507  -4.93936635
 H   2.38242288   5.55093834  -4.49217653
 H   3.04188725   4.73616182  -5.91194692
 N   1.30334644   3.83131929  -5.13060502
 H   1.06114738   3.15125477  -4.41289516
 N   0.39154727   5.51138599  -6.46770554
 H  -0.28402182   5.73032647  -7.18307937
 H   1.32160646   5.86670882  -6.62271452
 N  -0.92377018   3.70191010  -5.77273016
 H  -1.62495653   3.97691455  -6.44073458
 H  -0.94774187   2.73356384  -5.48815566
 C   0.26847785   4.34122046  -5.80458175
 O   5.12733971   3.08131953   0.16821140
 H  -1.52427123   0.40446259   4.84106161
