46
48
N          0.90666        2.83681        0.44874
H          1.51760        2.84899        1.28388
H          0.97339        3.70141       -0.09358
H          1.27574        2.06327       -0.16233
C         -0.49041        2.56593        0.89544
H         -0.90092        3.47593        1.34126
H         -0.42861        1.78302        1.64999
C         -1.30664        2.11308       -0.31159
O         -0.86296        2.24971       -1.44898
N         -2.52497        1.60186       -0.01983
H         -2.71642        1.31020        0.93032
C         -3.36183        1.02722       -1.07330
H         -3.31865        1.68582       -1.94325
H         -4.38896        0.96422       -0.71294
C         -2.87601       -0.39075       -1.39149
O         -3.32995       -1.36700       -0.78995
N         -1.88900       -0.47317       -2.31730
H         -1.41758        0.38334       -2.59105
C         -1.27262       -1.75273       -2.65206
H         -0.74969       -1.65890       -3.60350
H         -2.06379       -2.50284       -2.74192
C         -0.24820       -2.17325       -1.59263
O          0.96257       -2.13445       -1.83981
N         -0.78096       -2.57607       -0.41516
H         -1.78813       -2.43893       -0.30994
C          0.02022       -2.80544        0.75956
H          0.99415       -3.20105        0.45172
H         -0.46054       -3.56048        1.39104
C          0.26128       -1.51170        1.55484
O         -0.00457       -0.40268        1.09643
N          0.85717       -1.65649        2.77375
H          0.95967       -2.57689        3.18086
C          1.18780       -0.47723        3.57166
H          0.29303        0.08510        3.85095
H          1.69243       -0.80725        4.48417
C          2.08962        0.48458        2.77759
O          1.85608        1.69385        2.73415
N          3.13236       -0.11117        2.14424
H          3.14131       -1.12464        2.15685
C          3.73415        0.47707        0.94990
H          4.75935        0.11583        0.83973
H          3.74120        1.56140        1.04571
C          2.87748        0.03449       -0.23894
O          2.15829        0.78179       -0.88906
O          2.94137       -1.27415       -0.39532
H          2.22632       -1.59665       -1.03458
