21
conf-62
 N  -4.64841215   4.13342572   2.27397731
 H  -3.92211919   3.89273583   2.94216044
 H  -5.44431797   3.56783034   2.54433162
 C  -4.18252428   3.72215845   0.95730623
 H  -5.03877639   3.66737553   0.28320049
 C  -3.48689021   2.35518179   1.00093019
 C  -3.17593886   4.75073512   0.41054659
 H  -2.42706354   4.90861646   1.19120394
 H  -2.65193721   4.32244602  -0.45000209
 O  -2.97254847   1.92703918   2.01461531
 C  -3.81359624   6.05951195   0.01190644
 C  -4.12549728   6.32459516  -1.32193757
 H  -3.88425298   5.59342487  -2.08578383
 C  -4.12259013   7.02697736   0.96950367
 H  -3.89979269   6.82357142   2.01117005
 C  -4.73408776   7.52137076  -1.69155339
 H  -4.96677220   7.70359247  -2.73523752
 C  -4.72885870   8.22673778   0.60608916
 H  -4.96022977   8.96104758   1.37002562
 C  -5.03793203   8.47668932  -0.72739220
 H  -5.51127154   9.40996475  -1.01209659
 N  -3.41712910   1.66533724  -0.17213151
 C  -2.53641021   0.49911734  -0.25404901
 H  -2.71380878  -0.17165414   0.59176086
 C  -1.07457453   0.93536342  -0.23333113
 C  -2.94320604  -0.12416756  -1.59938746
 H  -2.13797921  -0.70199968  -2.05324156
 H  -3.79822291  -0.78198859  -1.43528815
 O  -0.67505607   1.96964650  -0.74237120
 C  -3.35159481   1.09100820  -2.43631430
 H  -2.45913483   1.60401130  -2.79982299
 H  -3.97773267   0.83401459  -3.28876989
 C  -4.07803155   1.98860091  -1.42658069
 H  -5.14545318   1.75450277  -1.37643136
 H  -3.98640213   3.04852445  -1.67080824
 N  -0.22901871   0.06708199   0.39164623
 H  -0.55454658  -0.86526048   0.56659676
 C   1.20579912   0.24226208   0.25143732
 H   1.44186394   1.28441659   0.47720186
 C   1.67284359  -0.01204685  -1.16863612
 C   1.93408400  -0.68003878   1.23290033
 H   1.69623279  -1.71835703   0.99031317
 H   1.52272565  -0.47743233   2.22416153
 O   2.61059407   0.53698360  -1.69149832
 C   3.43905122  -0.46654633   1.26667049
 H   3.87786415  -0.68168874   0.28973154
 H   3.62920384   0.59357478   1.46190476
 C   4.10670624  -1.32497988   2.32810171
 H   3.88502614  -2.37790875   2.12515337
 H   3.68164898  -1.09507826   3.30997265
 C   5.61392682  -1.16357669   2.38605782
 H   6.04851552  -1.92664787   3.03424258
 H   6.02592523  -1.32191969   1.38574935
 N   6.02725000   0.18008728   2.86722252
 H   7.04173830   0.28669627   2.88539977
 H   5.67713776   0.35836436   3.80827140
 H   5.65675280   0.91444841   2.26545094
 O   0.95222841  -0.97187818  -1.78989932
 H   1.34396982  -1.07902606  -2.66443480
