21
conf-474
 N  -3.78068422   4.20763323   0.30338782
 H  -3.77139926   5.19865659   0.09726345
 H  -2.89108427   3.96920614   0.72825023
 C  -3.89999705   3.45767635  -0.93046381
 H  -4.95663181   3.41166672  -1.21016933
 C  -3.37253368   2.04676816  -0.69257457
 C  -3.11833531   4.06768382  -2.11141060
 H  -2.07177719   4.17319756  -1.81104798
 H  -3.13732983   3.35456284  -2.94098699
 O  -2.44602410   1.83784570   0.06334567
 C  -3.67561601   5.39594432  -2.54795668
 C  -2.96677024   6.57664815  -2.34236314
 H  -1.99285516   6.53422068  -1.86376989
 C  -4.93205238   5.47360764  -3.14772500
 H  -5.49677435   4.55987794  -3.30282835
 C  -3.49133458   7.80600125  -2.73203433
 H  -2.91980624   8.71067912  -2.55903316
 C  -5.45979871   6.69607450  -3.55125980
 H  -6.43614849   6.72592646  -4.02188615
 C  -4.74089149   7.86851681  -3.34056997
 H  -5.15138680   8.82341920  -3.64853846
 N  -3.93457705   1.03426518  -1.41219411
 C  -3.20711342  -0.23784240  -1.49971727
 H  -3.10824405  -0.66454316  -0.49542626
 C  -1.81959743  -0.02464644  -2.10289607
 C  -4.07112371  -1.10473505  -2.44822135
 H  -3.57568945  -1.19387572  -3.41585626
 H  -4.22113610  -2.11202038  -2.05342974
 O  -1.58974959   0.80940912  -2.96332285
 C  -5.38033880  -0.32621075  -2.59741087
 H  -5.87515196  -0.51326819  -3.54976222
 H  -6.07463594  -0.57974102  -1.79413410
 C  -4.94930417   1.12989461  -2.44475588
 H  -5.77526259   1.77496963  -2.14039173
 H  -4.52025937   1.50427788  -3.37914753
 N  -0.87307430  -0.87985554  -1.62075781
 H  -1.19273026  -1.66340834  -1.08422955
 C   0.38631487  -1.01932575  -2.32533444
 H   0.45115841  -0.13906704  -2.96696740
 C   0.40960941  -2.21044218  -3.26618459
 C   1.58611552  -1.02606882  -1.38223754
 H   1.56689143  -0.08397074  -0.82876109
 H   2.48953532  -1.02190220  -1.99711567
 O   1.41558584  -2.75494523  -3.64448198
 C   1.62790898  -2.19547758  -0.41384041
 H   0.71789821  -2.19951365   0.18780898
 H   1.64333804  -3.13490414  -0.97475888
 C   2.85065833  -2.11466530   0.48610468
 H   2.81412303  -1.19094492   1.07137693
 H   3.74864667  -2.05926736  -0.13778893
 C   3.00327337  -3.29587129   1.42532408
 H   2.98818657  -4.21879033   0.83930740
 H   3.97149133  -3.25285233   1.92720072
 N   1.92510693  -3.35828472   2.44592238
 H   2.03145613  -4.15883889   3.06936555
 H   1.01005532  -3.43830799   2.00469555
 H   1.91009084  -2.51472480   3.01863443
 O  -0.82021116  -2.58319510  -3.67497608
 H  -0.68637204  -3.31634902  -4.28924672
