21
conf-883
 N  -4.69001557   4.10211440   0.56017831
 H  -4.78870107   5.10724526   0.63087193
 H  -4.02972001   3.80045819   1.27019929
 C  -4.13854382   3.72947274  -0.72834809
 H  -4.95429227   3.64682191  -1.45142535
 C  -3.46497119   2.37082077  -0.56734106
 C  -3.11582775   4.74817873  -1.27806552
 H  -2.83154367   4.45572733  -2.29428333
 H  -3.62120295   5.71608760  -1.34787603
 O  -3.02035865   2.00305734   0.50152131
 C  -1.88633653   4.85715718  -0.41904456
 C  -1.84610955   5.71039854   0.68216767
 H  -2.70639324   6.33640165   0.89709032
 C  -0.76741177   4.06124505  -0.67593646
 H  -0.76600822   3.39095641  -1.53183080
 C  -0.73221919   5.75554369   1.51937651
 H  -0.73112577   6.42547056   2.36994090
 C   0.34182343   4.09008007   0.16358105
 H   1.18649084   3.44366478  -0.05705923
 C   0.36685109   4.93934744   1.26468980
 H   1.23253142   4.96851992   1.91554346
 N  -3.31564776   1.62031199  -1.69336407
 C  -2.58934821   0.34958764  -1.59774575
 H  -2.87513843  -0.16148600  -0.67615753
 C  -1.08885258   0.59206861  -1.59687690
 C  -3.03731774  -0.39825018  -2.86334659
 H  -2.27438427  -1.08766040  -3.22329161
 H  -3.94190350  -0.96542582  -2.63726271
 O  -0.54270724   1.32150711  -2.42046609
 C  -3.34199765   0.73076426  -3.85191880
 H  -2.41435108   1.11627009  -4.27562688
 H  -3.99555072   0.41879038  -4.66512686
 C  -3.98746412   1.80556308  -2.97156644
 H  -5.06600673   1.64674323  -2.87689950
 H  -3.84365453   2.81690011  -3.35709649
 N  -0.39819233  -0.07801298  -0.64124674
 H  -0.88735023  -0.79648230  -0.13884892
 C   1.04798743  -0.15730366  -0.71542314
 H   1.35645270   0.73829631  -1.26135297
 C   1.54654055  -1.32696818  -1.54887893
 C   1.70406564  -0.14563788   0.66414053
 H   1.38717390   0.77284350   1.16797932
 H   2.78373339  -0.07522315   0.51255807
 O   2.66329563  -1.77275021  -1.47096216
 C   1.38513518  -1.34759404   1.53614012
 H   0.30701646  -1.42435195   1.67836187
 H   1.70799370  -2.26014185   1.02591672
 C   2.07122866  -1.23889163   2.88719579
 H   1.70151796  -0.34866007   3.40595214
 H   3.14554705  -1.09439516   2.73712887
 C   1.87588779  -2.45071350   3.77964556
 H   2.31569220  -3.32717542   3.29727295
 H   2.40516397  -2.30678885   4.72321708
 N   0.44049081  -2.72309598   4.05294957
 H   0.31122225  -3.37791113   4.82434772
 H  -0.01739313  -3.12074019   3.23479542
 H  -0.04881976  -1.85984971   4.28123109
 O   0.62882256  -1.79841916  -2.41453240
 H   1.06428856  -2.50282824  -2.91135001
