21
conf-497
 N  -2.97934957  -1.63949260   4.09564583
 H  -3.11306203  -1.72805310   5.09654532
 H  -2.12929084  -2.14001626   3.86124865
 C  -2.78851043  -0.24287702   3.74759452
 H  -3.74884652   0.27128688   3.79604631
 C  -2.24716136  -0.21449068   2.32256076
 C  -1.79720725   0.49388870   4.67888787
 H  -2.13671874   0.35333777   5.70900206
 H  -0.82243460   0.01172512   4.57390574
 O  -1.33278590  -0.96056238   1.99921224
 C  -1.70697000   1.96184174   4.34179500
 C  -2.58675682   2.88694379   4.90432189
 H  -3.27033836   2.56964727   5.68617711
 C  -0.82888745   2.39038419   3.35173675
 H  -0.12641257   1.68247742   2.92242803
 C  -2.63359975   4.19285738   4.43210963
 H  -3.34878799   4.88645492   4.85812011
 C  -0.90617809   3.68426752   2.84756913
 H  -0.28302356   3.95252969   2.00380154
 C  -1.80651179   4.59330348   3.39012943
 H  -1.87453880   5.60144748   2.99782334
 N  -2.75889752   0.69904267   1.45592718
 C  -2.17764035   0.86987978   0.10353819
 H  -2.48390977   0.02985824  -0.52760275
 C  -0.65573631   0.93962678   0.12051094
 C  -2.79432358   2.19194450  -0.35270393
 H  -2.18246913   3.01258938   0.03857410
 H  -2.83584150   2.27390286  -1.43851402
 O  -0.05614185   1.93348084   0.53371134
 C  -4.15549805   2.19318694   0.32606451
 H  -4.61259025   3.18170650   0.37683419
 H  -4.84373630   1.52546776  -0.19548877
 C  -3.85735975   1.62790004   1.71111716
 H  -4.72140230   1.11049525   2.13681194
 H  -3.54167671   2.41817438   2.40646204
 N  -0.00709131  -0.14753103  -0.35091428
 H  -0.49260387  -1.03355909  -0.37254787
 C   1.44315351  -0.19964046  -0.30812052
 H   1.81683948   0.81477792  -0.44226788
 C   1.96776521  -1.03835465  -1.45045181
 C   1.95955805  -0.75907080   1.02293958
 H   1.54437026  -1.75309376   1.17636072
 H   1.56556106  -0.12438138   1.81552182
 O   2.85747671  -0.72969810  -2.20059410
 C   3.47958404  -0.79247124   1.10169975
 H   3.88700378  -1.33694475   0.24697746
 H   3.85424226   0.23285638   1.01891261
 C   4.00048808  -1.41357249   2.39271983
 H   3.71072305  -0.79015335   3.24474217
 H   5.09376577  -1.42413304   2.37025879
 C   3.49574846  -2.82841134   2.64200339
 H   4.01165848  -3.26088700   3.50109619
 H   2.43086156  -2.79818016   2.89619927
 N   3.68249250  -3.70097578   1.45578924
 H   3.53765847  -4.68644010   1.67880673
 H   4.61901707  -3.58754649   1.06863739
 H   3.01691505  -3.44788904   0.72402353
 O   1.34265557  -2.23815512  -1.51277688
 H   1.72924361  -2.70395327  -2.26482189
