21
conf-578
 N  -0.83163549   0.74661691   3.31672940
 H  -0.21988434   1.13415977   2.60364866
 H  -0.33583998   0.01049196   3.79975416
 C  -2.06636903   0.24147158   2.73530314
 H  -1.85899292  -0.49117421   1.94433417
 C  -2.80613425   1.44364456   2.14904552
 C  -2.92047092  -0.39246896   3.83104041
 H  -3.16608667   0.39504638   4.54501412
 H  -3.86184093  -0.73702391   3.39796062
 O  -3.43777361   2.21378914   2.85232720
 C  -2.22583600  -1.52173941   4.53813305
 C  -2.24665289  -2.81845101   4.02367014
 H  -2.77271886  -3.01539531   3.09475599
 C  -1.51892024  -1.28009466   5.71249709
 H  -1.46369016  -0.26567099   6.09697547
 C  -1.58879133  -3.85212800   4.68384563
 H  -1.58590619  -4.84566918   4.25136860
 C  -0.88761732  -2.31652049   6.39067198
 H  -0.33152276  -2.10611227   7.29946807
 C  -0.92240420  -3.60787696   5.87954491
 H  -0.39750248  -4.40947807   6.39092249
 N  -2.70190343   1.66399241   0.81328042
 C  -2.17000220   0.79911445  -0.22318380
 H  -2.54445450  -0.22512135  -0.11303253
 C  -0.62712799   0.77608803  -0.22310302
 C  -2.70895070   1.46091705  -1.50315549
 H  -2.12449638   1.21795919  -2.39083307
 H  -3.73519348   1.12489849  -1.65781171
 O   0.08282302   1.61825948   0.34441728
 C  -2.68949590   2.94138114  -1.13557816
 H  -1.65503124   3.29721109  -1.10164183
 H  -3.26522776   3.57167903  -1.81125219
 C  -3.26437119   2.91402807   0.27896894
 H  -4.35939037   2.87849628   0.28152282
 H  -2.96493661   3.75835724   0.90033631
 N  -0.11439447  -0.23902598  -0.96316875
 H  -0.70344876  -0.79539005  -1.55892399
 C   1.32168311  -0.30295253  -1.13791228
 H   1.68982449   0.71806168  -1.26220615
 C   1.70392569  -1.06959174  -2.37630428
 C   2.02662072  -0.87678019   0.09877071
 H   1.75321846  -0.21268152   0.92525097
 H   3.10363588  -0.78036623  -0.05067019
 O   2.81647865  -1.08709466  -2.83513588
 C   1.66081912  -2.31642777   0.41326341
 H   0.57269520  -2.42436887   0.40820367
 H   2.04610023  -2.97170006  -0.37496226
 C   2.18686306  -2.77057133   1.76782737
 H   3.23278699  -2.46685797   1.88001848
 H   2.16281799  -3.86303141   1.82925408
 C   1.37210600  -2.20915659   2.91505689
 H   1.31421427  -1.12150733   2.81705168
 H   0.35085011  -2.60072180   2.85445922
 N   1.95185996  -2.51701219   4.23939511
 H   1.26421096  -2.35706279   4.98138855
 H   2.77039158  -1.93688878   4.42567235
 H   2.24423531  -3.49344712   4.28882046
 O   0.67633676  -1.76800819  -2.91008015
 H   1.02205116  -2.22035916  -3.68967181
