21
conf-635
 N  -1.19608416   3.50024586   1.21274013
 H  -1.48147620   4.46761356   1.08748512
 H  -0.61927999   3.26113583   0.41090375
 C  -2.39100790   2.65499867   1.23623541
 H  -2.05587214   1.61788143   1.21486316
 C  -3.25106538   2.97753163   0.01872103
 C  -3.17883671   2.91311519   2.52036292
 H  -3.34937633   3.98997409   2.57398360
 H  -4.16232310   2.43945458   2.45809936
 O  -3.88271963   4.02296560  -0.03534223
 C  -2.46098761   2.41859691   3.75097457
 C  -2.77544010   1.17743844   4.30333911
 H  -3.55833804   0.57645221   3.85569553
 C  -1.46102216   3.18358582   4.35452784
 H  -1.19996492   4.14358458   3.92256313
 C  -2.10282857   0.70584227   5.42720272
 H  -2.36277834  -0.26255797   5.83965911
 C  -0.78843041   2.71795795   5.48235060
 H  -0.01371778   3.32854653   5.93373712
 C  -1.10681458   1.47531907   6.02090140
 H  -0.58434660   1.11054184   6.89802218
 N  -3.21683573   2.12004202  -1.03164311
 C  -2.54793992   0.83270126  -1.12760142
 H  -2.86616922   0.16450746  -0.31965821
 C  -1.03188731   0.95343599  -1.08754309
 C  -3.01530231   0.31578833  -2.50052462
 H  -2.29814409  -0.36294851  -2.95906538
 H  -3.96112270  -0.21289401  -2.37023437
 O  -0.41718060   1.89611304  -1.58157016
 C  -3.23166472   1.59535374  -3.30668555
 H  -2.26950866   2.01335131  -3.61149230
 H  -3.85008997   1.44773801  -4.19036473
 C  -3.88567046   2.51618551  -2.27927538
 H  -4.96700017   2.35993181  -2.20822879
 H  -3.72009828   3.57813512  -2.46549205
 N  -0.40889901  -0.07860872  -0.45620379
 H  -0.92329154  -0.93227662  -0.33071813
 C   1.03193068  -0.20726964  -0.54974590
 H   1.45676473   0.79196359  -0.41399255
 C   1.49268679  -0.67592065  -1.91841429
 C   1.56878511  -1.14997578   0.52605865
 H   2.62477822  -1.33489852   0.32058580
 H   1.05092493  -2.10732205   0.43786298
 O   2.61527610  -0.53558207  -2.33156624
 C   1.41175953  -0.57565928   1.92557336
 H   1.89602151   0.40649231   1.95900798
 H   0.35188474  -0.40125450   2.14119323
 C   1.99894194  -1.45873098   3.01538753
 H   1.95083689  -0.93347767   3.97403030
 H   3.05910789  -1.64614812   2.81092069
 C   1.29260509  -2.78988169   3.16217123
 H   0.22424620  -2.61903285   3.32008866
 H   1.39570170  -3.36622260   2.24046206
 N   1.83991086  -3.59147954   4.28573517
 H   1.36535819  -4.48858574   4.38931360
 H   1.74821685  -3.09075079   5.16822058
 H   2.83099431  -3.78285257   4.14601975
 O   0.52479647  -1.31020747  -2.61824401
 H   0.92690595  -1.58272828  -3.45142667
