21
conf-981
 N  -1.35828453   3.53240030  -2.57055096
 H  -1.27557824   4.51756744  -2.34719848
 H  -1.73028749   3.46951327  -3.51275276
 C  -2.30799361   2.91155407  -1.66495347
 H  -1.84857081   2.84236314  -0.67866724
 C  -2.61956241   1.53017739  -2.22095201
 C  -3.63253872   3.69651059  -1.54275508
 H  -3.39484298   4.70519736  -1.19461420
 H  -4.04922968   3.77787985  -2.54936630
 O  -2.90135021   1.38820510  -3.39791300
 C  -4.60507221   3.02470685  -0.60794287
 C  -5.40687804   1.98097188  -1.06708069
 H  -5.37242205   1.71467173  -2.12023775
 C  -4.65490982   3.36786968   0.74413327
 H  -4.03606619   4.18081749   1.11398672
 C  -6.22970289   1.28201450  -0.19052091
 H  -6.83732254   0.46279792  -0.56389028
 C  -5.44173222   2.63607993   1.62794530
 H  -5.42882772   2.89135946   2.68071143
 C  -6.22995174   1.59043729   1.16586279
 H  -6.83735949   1.01407315   1.85386247
 N  -2.63757922   0.47484208  -1.36815091
 C  -2.47317309   0.52999811   0.06495282
 H  -2.98001382   1.40674633   0.49226353
 C  -1.01731719   0.61776584   0.51415752
 C  -3.15836252  -0.75519560   0.53914761
 H  -2.77025769  -1.11223285   1.49187910
 H  -4.22024530  -0.51203260   0.65078038
 O  -0.74005583   0.99532939   1.64449465
 C  -2.98989350  -1.71468930  -0.63326045
 H  -1.97637437  -2.12766714  -0.65295962
 H  -3.69141357  -2.54815953  -0.61197969
 C  -3.20203950  -0.79907026  -1.83660359
 H  -4.26621951  -0.68128974  -2.07187856
 H  -2.70267839  -1.12013366  -2.75072921
 N  -0.09571655   0.24139478  -0.40013312
 H  -0.38032879   0.04318386  -1.34503276
 C   1.32335967   0.31995909  -0.11748300
 H   1.54108823   1.29063561   0.33838383
 C   2.07091885   0.22478449  -1.42644491
 C   1.79538027  -0.76055765   0.86466531
 H   1.22246533  -0.61401142   1.78061835
 H   2.84197742  -0.56276577   1.10310066
 O   1.58905617  -0.09071902  -2.48546965
 C   1.63481870  -2.18176651   0.35202217
 H   0.58527240  -2.36105830   0.09806223
 H   2.20167119  -2.30162357  -0.57703632
 C   2.08060606  -3.23001453   1.36070986
 H   3.11267791  -3.02870997   1.66959125
 H   2.07950423  -4.21423586   0.88381420
 C   1.20559227  -3.29268154   2.59518473
 H   1.22749015  -2.33067934   3.11208436
 H   0.16949685  -3.47549033   2.29666120
 N   1.64393531  -4.35032003   3.54041755
 H   1.06001272  -4.38903241   4.37597561
 H   2.60343602  -4.18957231   3.84347316
 H   1.61321533  -5.26850635   3.09982310
 O   3.37791576   0.50850861  -1.27213853
 H   3.77855201   0.41379546  -2.14573571
