21
conf-879
 N  -0.98248449  -1.76146607  -3.69927629
 H  -1.52262079  -2.60810818  -3.83844785
 H  -0.12465908  -2.06516699  -3.26005451
 C  -1.69685793  -0.91067907  -2.76282657
 H  -1.03383981  -0.08708147  -2.47681762
 C  -2.09691378  -1.68841310  -1.50591861
 C  -2.92734116  -0.28499683  -3.44405049
 H  -3.36125183   0.48251242  -2.79541242
 H  -2.55913502   0.22079301  -4.33991396
 O  -2.13994894  -2.90583086  -1.47487501
 C  -3.98900723  -1.28226051  -3.81288149
 C  -3.91063360  -1.99981230  -5.00354382
 H  -3.07264852  -1.81685207  -5.67009256
 C  -5.06151907  -1.52912798  -2.95677275
 H  -5.13760498  -0.97121186  -2.02873039
 C  -4.87079334  -2.95335138  -5.33103802
 H  -4.78398678  -3.50306514  -6.26070598
 C  -6.02527455  -2.48241497  -3.27398689
 H  -6.84678961  -2.65739303  -2.58988803
 C  -5.93274314  -3.19777947  -4.46421509
 H  -6.68197431  -3.93991690  -4.71572684
 N  -2.45430821  -0.94933205  -0.41935789
 C  -2.21280707   0.46812635  -0.23355535
 H  -2.64127656   1.06821814  -1.03675484
 C  -0.72466090   0.82101366  -0.21622360
 C  -2.89570250   0.74101674   1.12026971
 H  -2.44702929   1.58294182   1.64640839
 H  -3.94437959   0.97856432   0.93197709
 O  -0.30700802   1.85624472  -0.71061124
 C  -2.78243081  -0.58238326   1.87622079
 H  -1.78731115  -0.68312855   2.31922594
 H  -3.51230552  -0.68053096   2.67886309
 C  -2.96193353  -1.63219552   0.77855747
 H  -4.01114989  -1.91486902   0.64235629
 H  -2.40083148  -2.55416886   0.94583219
 N   0.07073962  -0.08037113   0.41541515
 H  -0.29824278  -1.00124399   0.55831643
 C   1.50068293   0.08491546   0.45137816
 H   1.70483837   1.15518719   0.49681987
 C   2.20254972  -0.40293995  -0.80083303
 C   2.10954940  -0.58680180   1.68816086
 H   1.71134119  -0.07710387   2.56900673
 H   3.18571481  -0.39647902   1.66516879
 O   3.36598984  -0.18692901  -1.03316455
 C   1.83805027  -2.07813259   1.78121422
 H   0.75545916  -2.25303240   1.81156278
 H   2.20512313  -2.57888178   0.88017143
 C   2.46893210  -2.72388763   3.00503925
 H   2.12197180  -3.75789579   3.08632619
 H   2.13733022  -2.20361148   3.91021703
 C   3.98318460  -2.73095220   2.97296569
 H   4.32482737  -3.19800589   2.04528860
 H   4.35700011  -1.70510006   2.97508503
 N   4.56341739  -3.44891395   4.13630748
 H   5.58334975  -3.45315966   4.11939001
 H   4.25150098  -4.41851186   4.15733769
 H   4.27250724  -3.01571305   5.01149865
 O   1.42121734  -1.12103125  -1.63361221
 H   1.98772135  -1.35040157  -2.37821404
