21
conf-222
 N  -1.27996154  -0.66394530  -4.06234643
 H  -1.81259697  -1.49713838  -4.28531338
 H  -0.34937811  -0.98774016  -3.84306946
 C  -1.89540210  -0.04176238  -2.90119013
 H  -1.16509750   0.62527759  -2.42604746
 C  -2.38387447  -1.08081419  -1.87995022
 C  -3.07222685   0.82120448  -3.37947676
 H  -3.68620260   0.20334715  -4.03809726
 H  -3.70408122   1.11807357  -2.53863741
 O  -2.59138377  -2.23482549  -2.19616360
 C  -2.56763660   2.05235283  -4.08420868
 C  -2.17190774   3.16694804  -3.33912358
 H  -2.24426482   3.13181686  -2.26082124
 C  -2.42008216   2.08859027  -5.46954910
 H  -2.68049686   1.20682276  -6.04512778
 C  -1.66404440   4.30070513  -3.96716017
 H  -1.36295997   5.15164999  -3.36637520
 C  -1.91645223   3.22305615  -6.10345882
 H  -1.81630841   3.23166983  -7.18316561
 C  -1.54037888   4.33247729  -5.35318454
 H  -1.14830335   5.21618345  -5.84455890
 N  -2.60370529  -0.64655522  -0.60550170
 C  -2.45212946   0.70714410  -0.10970179
 H  -2.98235710   1.43398811  -0.72348549
 C  -0.99297279   1.15679177  -0.11463120
 C  -3.05727255   0.63068837   1.30703902
 H  -2.55401145   1.29591418   2.00806412
 H  -4.10483906   0.93559774   1.25100964
 O  -0.67184435   2.30179706  -0.39979759
 C  -2.95524698  -0.84360877   1.69347190
 H  -1.95364522  -1.07030988   2.06723026
 H  -3.67037320  -1.13105243   2.46346193
 C  -3.19342854  -1.56947200   0.37183792
 H  -4.25928750  -1.71821913   0.17002771
 H  -2.71261270  -2.54540392   0.30379603
 N  -0.08961072   0.20332196   0.22503130
 H  -0.39650668  -0.74906172   0.16284803
 C   1.32640557   0.46762928   0.03985012
 H   1.54104049   1.42054371   0.52299799
 C   1.65265349   0.59970698  -1.45190760
 C   2.14169209  -0.66856134   0.65828798
 H   1.84757032  -1.59667365   0.15917337
 H   1.84425513  -0.75592904   1.70661198
 O   1.31041920  -0.20357739  -2.29089818
 C   3.65236894  -0.48768167   0.56274815
 H   4.13544580  -1.38248812   0.96722079
 H   3.95197993  -0.42667686  -0.49054309
 C   4.16884411   0.72744682   1.31172792
 H   3.85108404   0.68101666   2.35658209
 H   3.74960396   1.64244074   0.88899787
 C   5.67794787   0.81586035   1.26291724
 H   6.10451817  -0.10061299   1.67730605
 H   5.99549144   0.87682687   0.21931712
 N   6.20293818   1.98602989   2.01107167
 H   7.21966438   2.05554051   1.95878722
 H   5.94985723   1.93203556   2.99721126
 H   5.81605023   2.85564396   1.64654909
 O   2.41053683   1.68118166  -1.71032481
 H   2.57722480   1.65333817  -2.65983063
