21
conf-535
 N  -4.05845745   0.47711706   4.39329057
 H  -3.43503123  -0.32031494   4.49165998
 H  -4.88962270   0.11353920   3.94106492
 C  -3.39425266   1.44182900   3.52753010
 H  -4.10949554   2.21302037   3.23783267
 C  -2.80163779   0.77358404   2.28923272
 C  -2.26852022   2.09224644   4.34202140
 H  -2.71459126   2.45881985   5.26566454
 H  -1.57099295   1.29638679   4.60787910
 O  -2.29021676  -0.33880529   2.38055445
 C  -1.56815871   3.20712929   3.61820177
 C  -2.04764334   4.51546357   3.67467830
 H  -2.90695522   4.74117187   4.30167020
 C  -0.46303687   2.93451514   2.81226741
 H  -0.07863262   1.91972158   2.77653029
 C  -1.47271833   5.51489888   2.89827330
 H  -1.88978938   6.51448916   2.93036826
 C   0.12031142   3.93910020   2.04629907
 H   0.97280736   3.69836042   1.41705471
 C  -0.38888391   5.23208517   2.07711950
 H   0.06140202   6.01143947   1.47519360
 N  -2.82062092   1.44936344   1.11627856
 C  -2.33234640   0.78573240  -0.10215731
 H  -2.60436120  -0.27180128  -0.05473490
 C  -0.81084293   0.91313337  -0.18207807
 C  -3.06231850   1.54957989  -1.20678725
 H  -2.52630831   1.52387020  -2.15226022
 H  -4.04525190   1.09600037  -1.34359885
 O  -0.24200523   1.71692590  -0.91131427
 C  -3.19565117   2.96188274  -0.63160517
 H  -2.25018665   3.49538315  -0.73624735
 H  -3.97706119   3.54634804  -1.11590907
 C  -3.49225817   2.71708741   0.84983668
 H  -4.56824723   2.63839447   1.03423162
 H  -3.09011179   3.50486807   1.48869527
 N  -0.09900891   0.08593198   0.62294758
 H  -0.58552523  -0.53586013   1.25687717
 C   1.34407587   0.04402714   0.50402741
 H   1.74436416   1.05292749   0.64877176
 C   1.78880526  -0.36887721  -0.88908578
 C   1.93467105  -0.90515121   1.54861096
 H   1.54506204  -1.90721957   1.36153540
 H   1.56842524  -0.58857978   2.52882477
 O   2.72782559   0.11406353  -1.47340062
 C   3.45547045  -0.91117105   1.55205235
 H   3.83294237  -1.24657537   0.58184446
 H   3.81041989   0.11767392   1.67757519
 C   4.04247235  -1.78627540   2.64932492
 H   3.65834849  -1.46902998   3.62515040
 H   5.12765005  -1.65281034   2.67577735
 C   3.74696161  -3.26014946   2.46380741
 H   2.67076210  -3.43346971   2.52961197
 H   4.06460228  -3.56922620   1.46457773
 N   4.42496774  -4.09849090   3.48528559
 H   4.22619717  -5.09183448   3.36526340
 H   4.12854395  -3.83726855   4.42455751
 H   5.43576302  -3.97919221   3.44022474
 O   1.05781351  -1.38513675  -1.39156210
 H   1.42576537  -1.57916714  -2.26202731
