21
conf-472
 N  -3.36697212  -3.62600804  -2.38755608
 H  -2.81831483  -3.18083565  -3.11776778
 H  -4.30576821  -3.27243194  -2.53032394
 C  -2.86133421  -3.14096622  -1.10955289
 H  -3.61717721  -3.32885601  -0.34476548
 C  -2.56155910  -1.63444627  -1.16428765
 C  -1.58206783  -3.89904993  -0.72787062
 H  -0.89013825  -3.81366990  -1.57030057
 H  -1.10362483  -3.41455387   0.12968300
 O  -2.41099276  -1.04969053  -2.21709334
 C  -1.82991609  -5.34927541  -0.38543313
 C  -1.94619328  -5.75381235   0.94529390
 H  -1.83233372  -5.02368956   1.74098571
 C  -1.96702781  -6.31326422  -1.38552032
 H  -1.89607237  -6.00663030  -2.42328502
 C  -2.19895626  -7.08429914   1.27059739
 H  -2.28645553  -7.37362034   2.31243543
 C  -2.21536636  -7.64591147  -1.06637218
 H  -2.31960270  -8.37495702  -1.86266123
 C  -2.33436927  -8.03499593   0.26430816
 H  -2.53002165  -9.07197187   0.51417054
 N  -2.40497652  -1.00598735   0.03843372
 C  -2.17258632   0.44197983   0.03938265
 H  -2.65028419   0.90847963  -0.82334165
 C  -0.69239075   0.84504802  -0.02089139
 C  -2.80025259   0.88334651   1.37477199
 H  -2.35328270   1.80279439   1.75307606
 H  -3.86784401   1.04886304   1.21623596
 O  -0.36590554   2.01952818  -0.06494012
 C  -2.57696960  -0.33579216   2.26834958
 H  -1.53420311  -0.38037684   2.59259194
 H  -3.21142096  -0.34399157   3.15428187
 C  -2.87786401  -1.50195682   1.32655922
 H  -3.95430670  -1.70190187   1.29698969
 H  -2.37877698  -2.43318895   1.60933414
 N   0.21108800  -0.16064720   0.01203357
 H  -0.11187516  -1.10605660   0.00741575
 C   1.63397944   0.12056558  -0.01621218
 H   1.84456898   0.90322877   0.71892333
 C   2.08944819   0.66385930  -1.36116464
 C   2.41592584  -1.15170836   0.33655423
 H   2.26792145  -1.88226728  -0.46047672
 H   1.96878821  -1.57236094   1.23785365
 O   2.89903664   1.54725801  -1.50132415
 C   3.89947300  -0.90803482   0.56540448
 H   4.35053092  -0.46867253  -0.32963367
 H   4.01851398  -0.16065714   1.35736834
 C   4.67321719  -2.16693216   0.94245638
 H   5.72111073  -1.90253055   1.11104865
 H   4.66200533  -2.86698395   0.10024323
 C   4.14309659  -2.89117900   2.17117892
 H   3.17527182  -3.34656973   1.93954629
 H   4.81800301  -3.70591587   2.43819400
 N   3.98380548  -1.97742172   3.33028447
 H   3.84600410  -2.48359533   4.20513781
 H   3.17041153  -1.37533431   3.19268556
 H   4.79516334  -1.36865486   3.42660592
 O   1.53367696   0.00901945  -2.40054405
 H   1.89736405   0.40795889  -3.19986956
