21
conf-34
 N  -4.81291892   0.72771673   3.13060958
 H  -5.30581410   1.19194769   3.88126600
 H  -4.84501236  -0.26871796   3.31964361
 C  -3.42867259   1.19414701   3.10563127
 H  -3.45513506   2.28130871   2.99361630
 C  -2.75947427   0.60201577   1.86070054
 C  -2.62028876   0.83592220   4.35584782
 H  -2.65678354  -0.25123913   4.47742152
 H  -1.57724649   1.10874700   4.18113484
 O  -1.95855957  -0.31957299   1.93378081
 C  -3.13407546   1.51643144   5.59175215
 C  -4.15423315   0.93472746   6.34268133
 H  -4.55449813  -0.02876056   6.04098622
 C  -2.62736126   2.75114691   5.99948780
 H  -1.82068166   3.21306687   5.44059116
 C  -4.67718162   1.57727581   7.46263763
 H  -5.47620991   1.10948829   8.02578884
 C  -3.14204894   3.39584013   7.12193004
 H  -2.73482125   4.35582422   7.41984345
 C  -4.17213551   2.81275846   7.85467104
 H  -4.57565323   3.31543027   8.72646065
 N  -3.13139881   1.11036410   0.66348688
 C  -2.47655778   0.63153952  -0.55909676
 H  -2.69275782  -0.43513780  -0.68902084
 C  -0.96370051   0.83096306  -0.48093098
 C  -3.09524918   1.50899779  -1.66948921
 H  -2.42039485   2.34072642  -1.88746300
 H  -3.26260496   0.95088826  -2.59152459
 O  -0.46640681   1.90626355  -0.18229894
 C  -4.38191768   2.04611402  -1.04582996
 H  -4.73083383   2.96506775  -1.51644682
 H  -5.18046649   1.30456563  -1.10536480
 C  -3.99435503   2.25348535   0.41601056
 H  -4.85160881   2.24211613   1.08646648
 H  -3.44823643   3.19304923   0.55582697
 N  -0.22224826  -0.25831008  -0.80030829
 H  -0.65406553  -1.11442830  -1.10540299
 C   1.22297070  -0.24241730  -0.71408954
 H   1.60265315   0.62896883  -1.25632439
 C   1.73707134  -1.49291876  -1.38871019
 C   1.73129733  -0.13617118   0.73361840
 H   1.30886376   0.78752251   1.13270930
 H   2.81537938  -0.01491588   0.71129836
 O   1.04598744  -2.39867243  -1.78250025
 C   1.34072889  -1.30651300   1.62662071
 H   0.29890172  -1.56475668   1.44189095
 H   1.93328846  -2.19019021   1.37522674
 C   1.51753465  -0.96135726   3.09822215
 H   0.97178764  -0.03033655   3.30914167
 H   2.57353551  -0.75852052   3.30002726
 C   1.04440651  -2.03747478   4.05941287
 H   1.64723768  -2.93938840   3.92268910
 H   1.19963016  -1.70628588   5.08861881
 N  -0.38757904  -2.37441884   3.86337314
 H  -0.77981580  -2.85860375   4.67050675
 H  -0.51494811  -2.97942705   3.05322615
 H  -0.93136624  -1.52407329   3.68891681
 O   3.07968062  -1.48904564  -1.48917404
 H   3.32123124  -2.31373179  -1.93057671
