21
conf-123
 N  -6.20964686   2.01602291   3.29930552
 H  -6.43947391   2.61504220   2.51514186
 H  -6.67574917   1.13521486   3.10264835
 C  -4.77483653   1.76538526   3.31424977
 H  -4.24905519   2.72638271   3.26928630
 C  -4.33290660   0.89497396   2.13047550
 C  -4.36903894   1.08205037   4.62317105
 H  -4.99167032   0.19998424   4.77819809
 H  -3.32996385   0.74886742   4.58210787
 O  -5.10002611   0.11701887   1.57976315
 C  -4.46502028   2.02512997   5.81813396
 N  -4.81242208   1.43103871   6.99143798
 H  -4.88517885   2.01717482   7.80501310
 H  -5.04137058   0.45701517   7.05213695
 O  -4.19878219   3.21127655   5.74135523
 N  -3.03847423   1.02806273   1.75529348
 H  -2.37728723   1.58678962   2.27209610
 C  -2.46459218   0.25773195   0.67537376
 H  -2.69589324  -0.80257852   0.82183812
 C  -0.94927885   0.46508113   0.77879733
 C  -3.01366183   0.64521772  -0.71249671
 H  -2.57922603  -0.04333647  -1.44316164
 H  -4.08727952   0.46918301  -0.68984050
 O  -0.44597765   1.21373663   1.59687209
 C  -2.73214677   2.07114690  -1.10092673
 C  -3.58801030   3.09261865  -0.68618649
 H  -4.47417023   2.84020408  -0.11737621
 C  -1.60667579   2.40977281  -1.85649932
 H  -0.94700945   1.62748937  -2.21407742
 C  -3.30885842   4.42448449  -0.98568629
 H  -3.98565048   5.19854765  -0.64243897
 C  -1.32424825   3.74209647  -2.14762736
 H  -0.44650499   3.98346344  -2.73148948
 C  -2.17201457   4.75497045  -1.71025363
 H  -1.94630478   5.79215531  -1.93274814
 N  -0.21528820  -0.23945844  -0.10823065
 H  -0.64586470  -0.76952389  -0.85026498
 C   1.19979256   0.01602822  -0.28546462
 H   1.38660284   1.08761634  -0.15085783
 C   1.51314920  -0.41418062  -1.72439804
 C   2.03158971  -0.71576914   0.76293843
 H   1.97468476  -1.79686317   0.62764078
 H   1.58704739  -0.48546581   1.73395468
 O   0.74407694  -1.12783646  -2.34866810
 C   3.47563393  -0.24470124   0.78330908
 N   4.36035322  -1.07520194   1.38628615
 H   5.32087893  -0.78231551   1.42655814
 H   4.07893278  -1.94907631   1.79139662
 O   3.81366571   0.83049736   0.30846814
 N   2.66435952   0.06368985  -2.23800701
 H   3.26944147   0.65378080  -1.67378837
 C   2.97598529  -0.11227704  -3.63786615
 H   2.42809782  -0.98992097  -3.99254586
 C   4.45940631  -0.35911422  -3.80340288
 C   2.56272052   1.09384737  -4.49995104
 H   3.14662666   1.96948778  -4.20630306
 H   2.82042820   0.86297753  -5.53355489
 O   5.30952974  -0.10233140  -2.99245938
 C   1.07598600   1.39213653  -4.39230570
 H   0.51142230   0.47753425  -4.57907612
 H   0.84341625   1.72178381  -3.37596234
 C   0.59820585   2.47758143  -5.33687708
 H   1.14734351   3.40479127  -5.14459936
 H   0.77966607   2.19437916  -6.37832672
 N  -0.84684019   2.69182627  -5.09452841
 H  -1.35767986   1.86823184  -4.81084936
 N  -0.94255864   4.64154890  -6.37065487
 H  -1.47967145   5.13143286  -7.07145439
 H   0.02421605   4.48464671  -6.61586731
 N  -2.92125269   3.60930178  -5.65764420
 H  -3.38521199   4.49581125  -5.79822432
 H  -3.34031787   3.04495540  -4.92698211
 C  -1.56298521   3.63614967  -5.71167106
 O   4.73089808  -0.88253779  -5.01654375
 H   5.69027795  -0.98585888  -5.05198454
