21
conf-472
 N  -8.62375708   1.90229083   4.00021938
 H  -9.52649826   2.23277169   3.68246142
 H  -8.22430467   2.62645728   4.58784651
 C  -7.74233131   1.69113504   2.87356957
 H  -7.99419455   0.72817113   2.40799691
 C  -6.30656750   1.63741947   3.39246566
 C  -7.86478875   2.80779253   1.80567090
 H  -8.90602173   2.79962528   1.46349976
 H  -7.64686707   3.76917208   2.27454391
 O  -5.93323994   2.36938484   4.29423734
 C  -6.93399369   2.65558812   0.62869553
 N  -7.29273539   1.56267115  -0.23372750
 H  -7.78004645   0.86929516   0.34015864
 H  -6.44463624   1.19053518  -0.67838167
 O  -6.00392174   3.37088272   0.36430853
 N  -5.48618282   0.75886473   2.74395240
 H  -5.80990545   0.40289620   1.86053327
 C  -4.06065658   1.01683825   2.69917274
 H  -3.88332112   2.00935637   3.12785154
 C  -3.67541423   1.03890681   1.21794120
 C  -3.21861649   0.02476649   3.52239077
 H  -2.18410181   0.37180928   3.41543096
 O  -4.46069512   0.70933968   0.33375101
 C  -3.29049475  -1.40648170   2.98909312
 H  -3.26172233  -1.38723352   1.89337161
 H  -4.25842328  -1.82942931   3.26551916
 C  -3.61585462   0.11013186   4.99625511
 H  -4.63124223  -0.26249759   5.13557965
 H  -2.95027572  -0.49015490   5.61715687
 H  -3.58546774   1.14333566   5.34819151
 C  -2.15907472  -2.28481842   3.50761688
 H  -2.23301793  -3.29650596   3.10639827
 H  -1.18848244  -1.87663434   3.20831615
 H  -2.16145543  -2.35508007   4.59631673
 N  -2.39844219   1.39354878   0.95504715
 H  -1.83555041   1.79842593   1.68405948
 C  -1.97180856   1.61755333  -0.42153452
 H  -2.41130935   0.80893566  -1.01675579
 C  -0.44697027   1.45923774  -0.48037380
 C  -2.43744611   2.96483065  -0.96318310
 H  -2.11729366   3.07256460  -1.99926198
 H  -3.52406254   3.03570638  -0.90747311
 H  -2.00343778   3.78049915  -0.38180847
 O   0.26708104   2.15957091  -1.19306268
 N   0.05450556   0.46417940   0.28650122
 H  -0.58396291   0.00960603   0.91721184
 C   1.46006026   0.45313676   0.63889152
 H   1.82494468   1.48212967   0.54500104
 C   2.19295665  -0.44081073  -0.36182926
 C   1.61182077   0.00459910   2.09422703
 H   1.27901140  -1.03363521   2.16865297
 O   2.65360677  -1.53551317  -0.06987560
 C   3.02579599   0.16563841   2.61677621
 H   3.73038856  -0.42481635   2.03259697
 H   3.07133844  -0.15054857   3.66035572
 H   3.31107763   1.21803892   2.55370669
 O   0.70529164   0.75064819   2.90919138
 H   1.10068439   1.61377827   3.05748857
 N   2.23554346   0.05340767  -1.62749377
 H   1.87169912   0.97921114  -1.82679030
 C   3.02290063  -0.58764638  -2.65502268
 H   3.52855810  -1.43196858  -2.18795435
 C   4.01466823   0.42127963  -3.23054572
 C   2.11085087  -1.10749120  -3.76469546
 H   2.70629343  -1.55549273  -4.56573356
 H   1.56214109  -0.25626745  -4.18796191
 O   3.66464572   1.55423431  -3.51928612
 O   1.24524709  -2.12857488  -3.30634220
 H   0.67608997  -1.74686754  -2.63247550
 N   5.28887870  -0.03893906  -3.40068265
 H   5.43234246  -1.03877993  -3.35811291
 C   6.19271932   0.64052362  -4.30504461
 H   5.70843350   1.54373172  -4.67671686
 H   7.10695537   0.92902456  -3.77919261
 C   6.55807430  -0.33039626  -5.42635159
 O   6.72454460  -1.51975355  -5.18937140
 N   6.69031989   0.19818046  -6.66659781
 H   6.69347281   1.20000895  -6.79591493
 C   7.12490816  -0.60375439  -7.79150668
 H   7.68551700  -1.46264186  -7.40905143
 C   8.03500669   0.24946127  -8.64724188
 C   5.95343484  -1.12292625  -8.63741506
 H   5.35263189  -0.27662173  -8.97642284
 H   6.36309687  -1.60577234  -9.52662265
 O   8.13571667   1.44767214  -8.57105000
 C   5.08560793  -2.11095951  -7.87360893
 H   5.70811673  -2.95782784  -7.56177309
 H   4.72412485  -1.64759932  -6.95724399
 C   3.90697581  -2.60971061  -8.69501998
 H   4.27022786  -2.99465062  -9.65502937
 H   3.25297260  -1.76063304  -8.92777376
 C   3.09517913  -3.71011760  -8.01745413
 H   2.25004180  -3.98286630  -8.65560121
 H   3.71012765  -4.60961267  -7.91450293
 N   2.57067502  -3.38773950  -6.68911907
 H   2.07166563  -2.50692788  -6.70311528
 H   3.33098084  -3.27610834  -6.03050877
 O   8.71505641  -0.49326632  -9.54214999
 H   9.24637110   0.12829403  -10.05565737
 H  -7.94718439   1.84170752  -0.97787030
