21
conf-121
 N  -7.33730719   4.54788577   1.55013531
 H  -6.50193432   5.07503837   1.31467884
 H  -7.68661421   4.96284896   2.40494281
 C  -6.92363460   3.16750598   1.80161379
 H  -7.66146123   2.69380568   2.45867508
 C  -5.55005992   3.11141382   2.48779063
 C  -6.85649071   2.36273853   0.48653524
 H  -6.23635477   2.94459157  -0.20048081
 H  -6.40343697   1.38324347   0.65526750
 O  -4.75071593   4.03481633   2.42499555
 C  -8.20965827   2.13168717  -0.14136825
 N  -8.69420059   3.33554969  -0.77005257
 H  -8.17325437   3.54090470  -1.63549217
 H  -8.46123505   4.11670244  -0.11947174
 O  -8.82552018   1.10025983  -0.14573555
 N  -5.29434003   1.95292970   3.15131535
 H  -5.93012290   1.17517616   3.05821378
 C  -3.96484404   1.62211729   3.65017611
 H  -3.26332158   2.35927708   3.25492332
 C  -3.64759273   0.22876356   3.11777086
 C  -3.89278466   1.65951361   5.19140836
 H  -4.72124146   1.04405892   5.55405424
 O  -4.43725198  -0.69815819   3.26337133
 C  -4.09053857   3.09383625   5.69060644
 H  -4.87841663   3.57588481   5.11046642
 H  -3.17202827   3.64953148   5.46813742
 C  -2.57128693   1.08724302   5.70842304
 H  -1.72857258   1.62867485   5.26459975
 H  -2.49741279   1.19064277   6.79221856
 H  -2.46760690   0.02725362   5.46504389
 C  -4.41756633   3.18828892   7.17498125
 H  -4.52530668   4.23016050   7.48155417
 H  -5.35833559   2.67463206   7.39243407
 H  -3.64391202   2.73575418   7.79696293
 N  -2.44627933   0.06915365   2.52388368
 H  -1.79316024   0.82895857   2.39408571
 C  -1.99739564  -1.21720277   2.04025953
 H  -2.19641810  -1.97025717   2.80791114
 C  -0.49773316  -1.07009346   1.82221106
 C  -2.71856875  -1.63775365   0.75765695
 H  -2.33009017  -2.59335203   0.40141818
 H  -3.78355954  -1.73277452   0.96046988
 H  -2.57406315  -0.88628912  -0.02251580
 O   0.02476995   0.02429501   1.65741450
 N   0.21222122  -2.23401330   1.79209016
 H  -0.30933328  -3.07855925   1.61730381
 C   1.59824663  -2.21300811   1.32602821
 H   2.00940239  -1.26309405   1.67305821
 C   1.60226086  -2.27008991  -0.19728816
 C   2.39798343  -3.34726773   1.96290921
 H   1.95725025  -4.30205619   1.64216001
 O   1.80364267  -3.31009692  -0.82723210
 C   3.87436269  -3.29481597   1.60822509
 H   4.04077724  -3.41099659   0.53805437
 H   4.39772699  -4.08788033   2.14321308
 H   4.27938905  -2.33341026   1.93250907
 O   2.34020928  -3.22383637   3.38059203
 H   1.41888159  -3.07163875   3.61275337
 N   1.33654839  -1.10065813  -0.81038962
 H   1.08166286  -0.29506630  -0.25092312
 C   1.20755784  -1.04068324  -2.24898414
 H   0.86847700  -2.02805615  -2.58470579
 C   2.55914224  -0.75995266  -2.93603700
 C   0.17875544  -0.00020249  -2.66176726
 H   0.51549003   1.00005881  -2.35730913
 H  -0.76203029  -0.22192344  -2.14823602
 O   2.71012344   0.14709457  -3.74681489
 O  -0.06741553  -0.06526522  -4.05003776
 H   0.75574406   0.22544408  -4.46019754
 N   3.57294975  -1.56627661  -2.59074129
 H   3.47260357  -2.36931536  -1.98761015
 C   4.85180546  -1.37477000  -3.20707216
 H   4.80861152  -1.53798327  -4.28762165
 H   5.19629901  -0.34439830  -3.07555466
 C   5.83188162  -2.35081268  -2.56478014
 O   5.50698594  -3.09343813  -1.64830940
 N   7.08112971  -2.33224605  -3.07708478
 H   7.37867539  -1.59203037  -3.69560590
 C   8.12782371  -3.13325136  -2.47649177
 H   8.03873866  -3.07532464  -1.38847563
 C   9.45032746  -2.52765517  -2.88290306
 C   8.03703688  -4.61753439  -2.85521169
 H   8.78353507  -5.15787270  -2.26891803
 H   7.05640931  -4.95955706  -2.52381712
 O   9.58027884  -1.61575842  -3.65961729
 C   8.22546883  -4.91433099  -4.33418741
 H   7.51650955  -4.33470966  -4.92634608
 H   9.22581850  -4.60572935  -4.65371505
 C   8.03147454  -6.39211807  -4.63371390
 H   7.03073813  -6.70357156  -4.31581894
 H   8.74422780  -6.98496563  -4.05488481
 C   8.20003066  -6.72026309  -6.10234378
 H   7.50744211  -6.10023977  -6.69125570
 H   9.21537841  -6.45412796  -6.41275628
 N   8.02112143  -8.15483846  -6.31963622
 H   8.19375876  -8.38815166  -7.28942592
 H   7.05867146  -8.41235907  -6.13598596
 O   10.48663224  -3.13459901  -2.27485206
 H   11.28411128  -2.68637279  -2.58454990
 H  -9.69222468   3.23503428  -0.97643830
