21
conf-535
 N  -6.91046435  -1.33668922   3.81906439
 H  -7.53749475  -2.12218645   3.94997008
 H  -7.23681255  -0.76588367   3.04666108
 C  -5.57700984  -1.82042361   3.51465953
 H  -5.16288755  -2.28192487   4.41609368
 C  -4.74722955  -0.60782067   3.11596376
 C  -5.53072684  -2.85135285   2.36484640
 H  -5.81106130  -2.35439896   1.43459552
 H  -4.51363966  -3.23707566   2.27729230
 O  -5.17937277   0.19466802   2.28998630
 C  -6.45033040  -4.02067340   2.63051320
 N  -7.63080803  -3.94855443   1.82019691
 H  -8.01785517  -3.00437869   1.94191295
 H  -8.29205064  -4.67997551   2.09225508
 O  -6.25277701  -4.86176508   3.46786022
 N  -3.53290285  -0.47528148   3.68735464
 H  -3.15782810  -1.20497968   4.26979722
 C  -2.66883955   0.64843814   3.34676808
 H  -3.33654989   1.49783308   3.17401450
 C  -1.94272685   0.31415925   2.04075687
 C  -1.69200955   1.01617903   4.47259631
 H  -1.02685605   0.15831091   4.60860844
 O  -0.78902773  -0.10189251   2.00906250
 C  -2.43818945   1.26743516   5.78356046
 H  -3.17646390   0.48109784   5.94259314
 H  -3.00260863   2.20013860   5.67575773
 C  -0.87945512   2.25634711   4.08104908
 H  -1.56252208   3.07618012   3.84495385
 H  -0.23235574   2.57805403   4.89685452
 H  -0.25012289   2.07757228   3.20655222
 C  -1.53143245   1.34221087   7.00416191
 H  -2.11832036   1.50282716   7.91058991
 H  -0.96935419   0.41252521   7.13185079
 H  -0.80810079   2.15554753   6.93033696
 N  -2.67024647   0.46884394   0.91072222
 H  -3.64036052   0.74602880   0.97798844
 C  -1.99306501   0.45983944  -0.36852736
 H  -1.49883153  -0.51193563  -0.47385853
 C  -0.90188326   1.54101859  -0.38432268
 C  -2.99060768   0.67767926  -1.49727465
 H  -2.49220460   0.66537862  -2.46869672
 H  -3.74932091  -0.10650533  -1.48821769
 H  -3.47972194   1.64596723  -1.37544080
 O  -1.02392522   2.61762991   0.17675232
 N   0.22180696   1.19436492  -1.07615482
 H   0.20089984   0.45302299  -1.75841733
 C   1.29037438   2.14679328  -1.28260354
 H   0.88693040   3.15368082  -1.17294501
 C   1.83061646   1.90252457  -2.68720723
 C   2.42625121   1.98291328  -0.24700903
 H   3.15337773   2.78549528  -0.41601551
 O   1.61188162   0.86225038  -3.29303332
 C   1.90490860   2.03002340   1.17302761
 H   1.30973133   2.92904320   1.34152563
 H   2.74224012   2.00537305   1.86943956
 H   1.28271988   1.15224925   1.35049784
 O   3.14385109   0.77374796  -0.45484993
 H   2.51956193   0.05182059  -0.35082481
 N   2.60452865   2.89817261  -3.19279370
 H   2.95423733   3.58183284  -2.54056142
 C   3.43215876   2.63768941  -4.36669822
 H   2.87520858   1.91295190  -4.96380413
 C   4.77332358   2.04187605  -3.92077642
 C   3.62571210   3.92117976  -5.15521227
 H   4.28819095   3.73633461  -6.00095363
 H   4.10948914   4.66659553  -4.51146413
 O   5.81739002   2.67112697  -3.95063809
 O   2.40092452   4.38927149  -5.68460771
 H   1.80030260   4.49415817  -4.94258868
 N   4.70414821   0.76257652  -3.47008961
 H   3.80449832   0.30708882  -3.38382863
 C   5.85249399   0.13891992  -2.87195486
 H   6.57589691   0.92090186  -2.62966671
 H   5.57634843  -0.36673264  -1.94632991
 C   6.57663113  -0.89810496  -3.73344669
 O   7.31944392  -1.71982183  -3.22252283
 N   6.38413162  -0.79887993  -5.06637541
 H   5.70293442  -0.15967811  -5.43284608
 C   7.04105174  -1.72936877  -5.96380476
 H   8.02753823  -1.95674355  -5.55203040
 C   7.24054862  -1.10855128  -7.32787932
 C   6.25578947  -3.04442174  -6.07630377
 H   6.08433051  -3.38731461  -5.05505524
 H   5.27861082  -2.84950684  -6.52120134
 O   8.18578201  -1.30519916  -8.04738646
 C   6.99604933  -4.11774663  -6.86049838
 H   7.17862850  -3.79427440  -7.88392563
 H   7.98039003  -4.26853732  -6.40360805
 C   6.23495099  -5.43563210  -6.86484964
 H   5.24387993  -5.27743608  -7.30507293
 H   6.07316914  -5.76422052  -5.83153359
 C   6.94444406  -6.53431237  -7.63197862
 H   7.95031512  -6.66642873  -7.22223129
 H   6.41412685  -7.48596060  -7.48741483
 N   7.08007014  -6.16186946  -9.04463083
 H   6.16491285  -6.12978168  -9.48104308
 H   7.60329200  -6.87014680  -9.54382431
 O   6.19782154  -0.32627208  -7.68534407
 H   6.38917629   0.01316473  -8.56796255
 H  -7.40217789  -4.00093732   0.81898610
