21
conf-234
 N  -6.37599187   6.92894893   1.13116812
 H  -7.28636240   7.37370695   1.10209286
 H  -5.93454228   7.07075645   0.22792957
 C  -6.51660973   5.50955739   1.39129527
 H  -6.81380521   5.37774452   2.43711552
 C  -5.18268486   4.81333641   1.15490053
 C  -7.54525728   4.79007881   0.48171876
 H  -8.55480142   5.08205187   0.77431627
 H  -7.35236364   5.07561083  -0.55593118
 O  -4.55218438   4.99953976   0.10376156
 C  -7.38493466   3.30223325   0.64242406
 N  -6.64055347   2.70721911  -0.41620889
 H  -5.87311251   3.34148515  -0.67719688
 H  -7.19089879   2.58591659  -1.27780368
 O  -7.80132083   2.67917795   1.58668714
 N  -4.84052243   3.91424284   2.11389435
 H  -5.58227083   3.51372162   2.67034778
 C  -3.58483253   3.20112824   2.02522765
 H  -2.95461376   3.80350604   1.37347042
 C  -3.74548608   1.81045679   1.35268957
 C  -2.89071657   3.09689402   3.40205108
 H  -2.91772115   4.11356985   3.80609793
 O  -4.71435107   1.03354930   1.53907340
 C  -1.42112265   2.68047403   3.30056723
 H  -1.34717328   1.69868814   2.82595246
 H  -1.05141454   2.54151085   4.32269104
 C  -3.63440094   2.16096444   4.34956525
 H  -3.60997950   1.14279099   3.95386528
 H  -3.17583104   2.16834792   5.33913499
 H  -4.68476238   2.44481623   4.45042743
 C  -0.51842661   3.68636737   2.60155129
 H   0.49828991   3.29494539   2.51863188
 H  -0.86095673   3.92059832   1.58632605
 H  -0.47661647   4.62798405   3.15614522
 N  -2.67776177   1.46385348   0.58062383
 H  -1.82038679   1.99132448   0.59236650
 C  -2.53570706   0.09501923   0.14081671
 H  -2.93536075  -0.54991330   0.93321588
 C  -1.04226831  -0.13048557  -0.00664532
 C  -3.35088446  -0.17059645  -1.11824422
 H  -3.24663757  -1.20473891  -1.44134659
 H  -4.39691861   0.01798386  -0.86141360
 H  -3.05457686   0.50196039  -1.92365377
 O  -0.24759928   0.80257013   0.05938617
 N  -0.64763738  -1.40110261  -0.20820984
 H  -1.31418293  -2.14981876  -0.31521989
 C   0.75457171  -1.75890807  -0.32941032
 H   1.31971818  -1.08060051   0.31300274
 C   1.21033785  -1.57679327  -1.77998266
 C   0.96576484  -3.20985353   0.10171303
 H   1.99193920  -3.48616562  -0.15864695
 O   1.50639594  -2.52966750  -2.49741021
 C   0.73875901  -3.42819708   1.57983178
 H   1.42674548  -2.81797217   2.17128960
 H   0.90101115  -4.47905584   1.82512459
 H  -0.28259845  -3.16817698   1.85994539
 O   0.05602103  -4.03880481  -0.61029270
 H   0.36942089  -4.03662711  -1.52202033
 N   1.21785931  -0.29906029  -2.22404287
 H   1.06872852   0.46110008  -1.57086183
 C   1.77440792   0.02302951  -3.51599616
 H   1.93154725  -0.91903787  -4.04217812
 C   3.10718908   0.75941550  -3.31379903
 C   0.82327953   0.90194272  -4.30895160
 H   0.73323867   1.87651501  -3.81037687
 H  -0.16701336   0.43084426  -4.33589023
 O   3.20620235   1.68337772  -2.52576275
 O   1.36938958   1.02437846  -5.61628508
 H   0.90115686   1.72286369  -6.07879990
 N   4.14835428   0.33981307  -4.05980869
 H   4.05272018  -0.31047552  -4.82139934
 C   5.40131956   1.04487028  -3.98970127
 H   5.26169525   2.11699735  -4.15543348
 H   5.85013296   0.94825129  -2.99751432
 C   6.31766206   0.46778454  -5.06155916
 O   5.91699581  -0.33568923  -5.88259716
 N   7.58577024   0.96566327  -5.05925949
 H   7.91807890   1.38070725  -4.20297097
 C   8.60897706   0.33879282  -5.87786277
 H   8.10446178  -0.18102231  -6.69264395
 C   9.37246653  -0.66092431  -5.03697745
 C   9.56860853   1.39345262  -6.43588044
 H   8.95829535   2.16417990  -6.91092928
 H   10.09242899   1.86730747  -5.60049067
 O   9.59375502  -0.54545091  -3.85773902
 C   10.56552535   0.85192714  -7.44883506
 H   11.22316655   0.11450103  -6.98380080
 H   10.01921417   0.32455885  -8.23801022
 C   11.40332364   1.95782787  -8.06897076
 H   11.97023957   2.47348091  -7.28675954
 H   10.75193277   2.70551014  -8.52938585
 C   12.37188248   1.44369284  -9.11385900
 H   13.00227233   0.66091382  -8.66597597
 H   11.80490335   0.97648239  -9.92539469
 N   13.13780722   2.55449534  -9.67629639
 H   13.74381168   2.22497798  -10.41717938
 H   13.74735608   2.94423785  -8.96707019
 O   9.82918574  -1.69522910  -5.77325477
 H   10.33648201  -2.25190653  -5.17011788
 H  -6.30283844   1.79621966  -0.08541907
