21
conf-877
 N  -6.15529059   0.34380140  -12.07230801
 H  -5.91513156  -0.44240564  -12.67697597
 H  -7.12340603   0.22521353  -11.75782511
 H  -6.11004835   1.20790406  -12.60964385
 C  -5.27340486   0.41184467  -10.88976550
 H  -4.22954410   0.43347943  -11.21062828
 C  -5.49563669  -0.78638221  -9.97843199
 C  -5.61166917   1.66955896  -10.09110846
 H  -5.33831484   2.55201629  -10.67371774
 H  -5.05879872   1.68865926  -9.14058717
 O  -6.62828947  -1.16900115  -9.68931858
 O  -7.00770277   1.77495143  -9.87321014
 H  -7.29184835   0.96764697  -9.42671975
 N  -4.37111175  -1.37350186  -9.48680625
 H  -3.52439028  -0.82658046  -9.53245532
 C  -4.45586724  -2.21183706  -8.30001516
 H  -5.40881203  -2.73561708  -8.34638912
 C  -4.42643175  -1.33565454  -7.04953059
 C  -3.30111406  -3.20603219  -8.27069448
 H  -3.36366497  -3.84393679  -7.38512862
 H  -2.35174175  -2.66537749  -8.23909036
 H  -3.32058614  -3.83131318  -9.16287725
 O  -3.83309543  -0.26342729  -7.01081962
 N  -5.07346497  -1.84535266  -5.96659764
 H  -5.29760103  -2.82743665  -5.98229459
 C  -4.77890545  -1.31414587  -4.64616772
 H  -4.95685942  -0.23997537  -4.67347421
 C  -3.31369965  -1.57247939  -4.30534328
 C  -5.69234161  -1.97699109  -3.60155748
 H  -5.31531281  -1.72812719  -2.59987358
 O  -2.80168180  -2.68254273  -4.47487169
 C  -7.12549437  -1.50970593  -3.72789831
 H  -7.20179623  -0.43774918  -3.52576524
 H  -7.50374724  -1.69926613  -4.73272878
 H  -7.75143171  -2.04869226  -3.01581172
 O  -5.69651432  -3.39185828  -3.77652701
 H  -4.79634618  -3.70871440  -3.62429960
 N  -2.63207323  -0.50766476  -3.83101205
 H  -3.09913247   0.37065110  -3.66502855
 C  -1.25323801  -0.60858025  -3.39789015
 H  -1.03632718  -1.66640857  -3.23445761
 C  -1.14006089   0.17410723  -2.08927003
 C  -0.25454934  -0.08129329  -4.45551740
 H  -0.44546926   0.98929878  -4.56397990
 O  -1.72353994   1.23911706  -1.93360347
 C   1.19372284  -0.28547668  -4.00925923
 H   1.38995248  -1.35541897  -3.86910133
 H   1.43065672   0.23284016  -3.07891943
 H   1.87498806   0.08252362  -4.78014726
 C  -0.48070671  -0.76442254  -5.80578897
 H  -0.42066037  -1.84831085  -5.68958953
 H  -1.45102150  -0.51838284  -6.22984943
 H   0.28612395  -0.44795408  -6.51467469
 N  -0.34178941  -0.39122372  -1.14520515
 H   0.23376334  -1.17812597  -1.41235117
 C   0.17158537   0.35360370  -0.00261685
 H  -0.10683354   1.40262302  -0.12567803
 C   1.68859188   0.18672897  -0.04012417
 C  -0.43512068  -0.15368889   1.32376005
 H  -0.29541806  -1.24143509   1.32865734
 O   2.19775889  -0.87752631  -0.36751722
 C  -1.93610876   0.15242255   1.35618106
 H  -2.36318315  -0.01130544   0.36590355
 H  -2.04584374   1.22435932   1.55567579
 C   0.25256338   0.45608562   2.54667549
 H   0.17940952   1.54919340   2.51464183
 H   1.30854538   0.18536156   2.62467468
 H  -0.22963073   0.12842697   3.46750239
 C  -2.70096744  -0.65585355   2.39534182
 H  -3.75572358  -0.37576541   2.40673521
 H  -2.63881448  -1.72415356   2.16986813
 H  -2.30496344  -0.50899969   3.40130130
 N   2.41999590   1.29210583   0.29727884
 H   1.94630511   2.02382556   0.80327974
 C   3.85502912   1.19548214   0.49417306
 H   4.20601373   0.38370856  -0.13906887
 C   4.21793145   0.84447718   1.95771374
 C   4.58331001   2.48204171   0.11192819
 H   4.24871912   2.80935424  -0.87078044
 H   4.37949589   3.26278546   0.84726621
 O   3.57737224   1.25577580   2.95251485
 C   6.10554289   2.24551219   0.00343474
 O   6.83504493   3.20662671   0.31176860
 O   6.47691114   1.12769415  -0.39016483
 N   5.34765776   0.08167824   2.03415121
 H   5.90916821  -0.00773001   1.19714912
 C   5.89914081  -0.28727102   3.32320519
 H   5.14117701  -0.08752608   4.07054839
 C   7.04280799   0.67256378   3.61229714
 C   6.20234314  -1.77069376   3.38309011
 H   6.54265662  -2.02876200   4.38849904
 H   7.00279147  -2.03353726   2.69429765
 O   8.19205011   0.46302135   3.24390709
 C   4.93432390  -2.53887907   3.04039974
 C   4.77008813  -3.75656652   2.44933291
 H   5.50083635  -4.49032166   2.12850150
 N   3.66639927  -2.00980588   3.25314667
 H   3.43673093  -1.09157608   3.63836913
 C   2.77585333  -2.86902145   2.75796539
 H   1.70886127  -2.72971461   2.75673658
 N   3.40943647  -3.95592602   2.27821235
 N   6.62609319   1.80151211   4.24256948
 H   5.62565495   1.92644186   4.31291368
 C   7.40578662   3.01962408   4.41156045
 H   7.46842027   3.52992886   3.44171183
 C   8.82785313   2.73013561   4.86618882
 C   6.68856547   3.91312702   5.42910800
 H   5.64752001   4.01724329   5.10506404
 H   6.68638821   3.37256871   6.37933121
 O   9.11199842   1.94710367   5.75345155
 C   7.29003295   5.30109745   5.64983117
 H   8.34207799   5.17445324   5.93030555
 C   7.22939781   6.15630299   4.38920621
 H   6.19036679   6.34120898   4.10443727
 H   7.71917050   7.11996520   4.55509532
 H   7.73397207   5.67999069   3.54330354
 C   6.57577198   5.99365133   6.80719344
 H   5.51434468   6.11592854   6.57981725
 H   7.00027030   6.98223088   6.99361045
 H   6.66482059   5.41066371   7.72584753
 N   9.75790428   3.47569468   4.18311517
 H   9.54822683   4.43589992   3.94856199
 C   11.15411525   3.38611631   4.51203157
 H   11.27777154   2.81977196   5.44189432
 C   11.63550213   4.86136578   4.70278131
 C   11.98275441   2.75468914   3.38741983
 H   13.03165419   2.75311076   3.69275684
 H   11.91572273   3.40060334   2.51175575
 O   12.77878579   5.02434158   5.12743338
 C   11.50338698   1.34464386   3.04060600
 H   11.96580519   0.61482435   3.71561989
 H   10.44271835   1.28205645   3.20637959
 C   11.76398735   0.90722979   1.60588131
 H   12.82912532   0.73159750   1.44008079
 H   11.24188525  -0.04133986   1.42347818
 N   11.36434206   1.91542869   0.61071136
 H   11.99378523   2.02231245  -0.16786161
 N   9.04260265   1.83719941   0.99505430
 H   8.12357998   2.27333965   0.79341553
 H   9.07613790   1.14721744   1.73253441
 N   9.93997654   3.18071542  -0.66918106
 H   9.01674900   3.60076618  -0.71988616
 H   10.69819333   3.84163617  -0.78270142
 C   10.08987916   2.28703186   0.36268456
 O   10.78476199   5.72542958   4.37915124
 H   2.97700606  -4.77425306   1.85044634
