21
conf-474
 N  -9.60439489  -6.47680863  -5.38438661
 H  -9.60863329  -7.28980214  -6.00253096
 H  -8.84390004  -6.61171912  -4.70937517
 H  -10.49427751  -6.40639800  -4.89777584
 C  -9.26970696  -5.23884703  -6.10912732
 H  -9.65526160  -5.27627064  -7.13243148
 C  -7.74610742  -5.11295301  -6.11757127
 C  -9.88352385  -4.01257268  -5.41968043
 H  -9.48025302  -3.93788118  -4.39752863
 H  -10.96550790  -4.16341380  -5.34922921
 O  -7.06358992  -5.70753875  -5.29738639
 O  -9.68057046  -2.82278358  -6.15835217
 H  -8.86032298  -2.39502762  -5.87203310
 N  -7.22267593  -4.28747641  -7.06471291
 H  -7.87253139  -3.66782214  -7.52731331
 C  -5.87302513  -3.76450457  -6.91257415
 H  -5.26622697  -4.58190249  -6.52432003
 C  -5.88822514  -2.59403479  -5.90152360
 C  -5.35253991  -3.24907594  -8.24466164
 H  -4.31030187  -2.93797132  -8.14294648
 H  -5.93963553  -2.37962822  -8.54478427
 H  -5.42294621  -4.02154396  -9.01062824
 O  -6.70384764  -1.66227336  -6.02853704
 N  -4.95985240  -2.68729117  -4.90645490
 H  -4.13818915  -3.25631101  -5.06991082
 C  -4.69415976  -1.58161154  -4.00513901
 H  -5.06444378  -0.65189627  -4.44892388
 C  -3.17032068  -1.52689729  -3.85230909
 C  -5.38882424  -1.78488693  -2.64347562
 H  -4.93730884  -1.09988753  -1.91836885
 O  -2.44622564  -2.39752320  -4.30493352
 C  -6.88041044  -1.51726401  -2.73346087
 H  -7.07402385  -0.46663686  -2.96410575
 H  -7.31903995  -2.12234628  -3.53306146
 H  -7.36902395  -1.77054988  -1.79372880
 O  -5.14498905  -3.08582714  -2.14969961
 H  -5.39574169  -3.69062041  -2.85732870
 N  -2.69784625  -0.44847989  -3.18686294
 H  -3.32950365   0.22339280  -2.78006280
 C  -1.29655351  -0.31349895  -2.83013762
 H  -0.83827076  -1.30421118  -2.89145200
 C  -1.23931747   0.21245833  -1.39886060
 C  -0.52958184   0.63536995  -3.78089131
 H  -1.11045440   1.55930068  -3.82624210
 O  -1.99014919   1.10164214  -1.02002079
 C   0.87194144   0.97634329  -3.26751472
 H   1.47685679   0.06755547  -3.15954256
 H   0.84831655   1.48711798  -2.29976308
 H   1.37644786   1.63437165  -3.97787121
 C  -0.43878348   0.02436354  -5.17561434
 H   0.17600933  -0.87981145  -5.13844380
 H  -1.41700282  -0.25217015  -5.56824886
 H   0.02540118   0.72724244  -5.86939055
 N  -0.27123276  -0.33663658  -0.61251764
 H   0.38322342  -0.97594440  -1.04109890
 C   0.24848610   0.38130099   0.53989973
 H  -0.26997922   1.33567001   0.60896920
 C   1.72039211   0.60210633   0.25490038
 C   0.05971336  -0.39382311   1.85129958
 H   0.53524445  -1.36794268   1.69950600
 O   2.42115594  -0.34885845  -0.12084870
 C  -1.42709145  -0.64966131   2.14226474
 H  -1.48386738  -1.30826053   3.01466584
 H  -1.86436541  -1.20938544   1.30907861
 C   0.75731343   0.31147535   3.01939037
 H   0.39577277   1.33895426   3.12050264
 H   1.83452456   0.35017671   2.85808594
 H   0.56678388  -0.21429564   3.95922139
 C  -2.25590996   0.60313171   2.40188000
 H  -3.29324523   0.33572919   2.61205432
 H  -1.87748647   1.15716634   3.26432695
 H  -2.25332744   1.27278720   1.53900713
 N   2.19908363   1.83496612   0.44184276
 H   1.57770972   2.64788748   0.47977723
 C   3.57101670   2.15276823   0.11708433
 H   3.75882284   1.93126112  -0.94029497
 C   4.49596433   1.29773956   0.97010951
 C   3.79616703   3.62868385   0.39861253
 H   3.64810454   3.78723707   1.47129703
 H   4.80137691   3.95241995   0.12487007
 O   4.31092212   1.13251248   2.16955282
 C   2.76510878   4.45569907  -0.38784565
 O   1.56792495   4.33764368  -0.02412668
 O   3.19894386   5.18883087  -1.28592519
 N   5.51687694   0.70836526   0.30684308
 H   5.78437450   1.03829752  -0.60343776
 C   6.47990786  -0.10865638   1.02594915
 H   5.91321989  -0.66048229   1.77696579
 C   7.46976307   0.82882556   1.71877864
 C   7.20105160  -1.05302493   0.06950103
 H   8.12776380  -1.41211883   0.51647737
 H   7.49435294  -0.48525621  -0.81503999
 O   8.49203897   1.23007580   1.16484879
 C   6.37360845  -2.25706628  -0.29600848
 C   6.77588470  -3.54568786  -0.49544186
 H   7.76535182  -3.98846706  -0.43267282
 N   5.01029076  -2.21993138  -0.49418850
 H   4.37891219  -1.41379187  -0.41498480
 C   4.60419956  -3.44925379  -0.80630901
 H   3.58625114  -3.69911860  -1.03189271
 N   5.65523111  -4.28552490  -0.81676788
 N   7.09399990   1.21971553   2.95965925
 H   6.19938088   0.94253670   3.34247158
 C   7.80600262   2.23812613   3.69444485
 H   8.74060869   2.41639180   3.16334146
 C   8.08128459   1.69921935   5.09807724
 C   6.99803054   3.53585669   3.80034931
 H   6.12834863   3.33679140   4.43212113
 H   7.60335057   4.28568288   4.31711888
 O   7.22797625   1.07952720   5.71669416
 C   6.52325569   4.11314229   2.46502462
 H   5.93613160   3.33125994   1.96221551
 C   5.61068315   5.30858720   2.70298689
 H   6.16597274   6.12035302   3.17695198
 H   5.20157031   5.68199557   1.75983101
 H   4.77180156   5.04829326   3.35393755
 C   7.68733458   4.51260773   1.56604541
 H   8.25800496   5.31892897   2.03475438
 H   7.31230380   4.87552836   0.60409130
 H   8.36834807   3.68496730   1.37169028
 N   9.29673166   1.99048333   5.61583045
 H   9.92969420   2.68176843   5.22892530
 C   9.60261731   1.71900729   6.99531496
 H   8.76520416   2.04614510   7.63079647
 C   10.85211254   2.59016539   7.31151383
 C   9.86662846   0.23047215   7.25813173
 H   10.85894783  -0.02743034   6.87571136
 H   9.13865967  -0.32083266   6.66533640
 O   11.34354772   2.48233111   8.44165098
 C   9.72446639  -0.12248515   8.73245914
 H   10.37067263   0.51445327   9.34025867
 H   8.69602817   0.08132230   9.03382828
 C   10.04289869  -1.58045453   9.03139615
 H   11.09318742  -1.78478128   8.81171053
 H   9.90509736  -1.79488938   10.09525550
 N   9.27265200  -2.55860016   8.23911780
 H   9.64822193  -2.75297907   7.32198557
 N   7.27533985  -2.08440199   9.34382232
 H   6.34303907  -2.39090801   9.57124967
 H   7.81575194  -1.73199132   10.11685484
 N   7.27450713  -3.40462537   7.40378640
 H   6.33466570  -3.69948089   7.62410676
 H   7.80810909  -4.06619807   6.85570717
 C   7.94498224  -2.69522719   8.34603077
 O   11.22530776   3.33859972   6.38442762
 H   5.63925957  -5.28493590  -1.02785740
