21
conf-608
 N  -10.31454868  -5.62118746  -8.24949174
 H  -9.92492154  -5.02372420  -8.97823157
 H  -9.87867025  -6.54453353  -8.30845523
 H  -11.32634218  -5.70554445  -8.35859565
 C  -10.01732954  -5.09519973  -6.90348511
 H  -10.12532924  -4.00742537  -6.88940583
 C  -8.59880271  -5.50571719  -6.52446870
 C  -11.00421876  -5.70570847  -5.92478907
 H  -10.85577076  -5.30618262  -4.91533468
 H  -10.84320814  -6.78892858  -5.90504646
 O  -8.10321890  -6.53636728  -6.95880236
 O  -12.30840156  -5.40174358  -6.41797339
 H  -12.94238268  -5.96394264  -5.96668916
 N  -7.95439159  -4.69632486  -5.65579072
 H  -8.38423804  -3.88732171  -5.23201717
 C  -6.63446896  -5.01357795  -5.15938667
 H  -6.60619547  -6.06910088  -4.87137377
 C  -6.42752120  -4.12547342  -3.92526367
 C  -5.55550762  -4.77610015  -6.21488062
 H  -4.57107118  -5.03106833  -5.81928128
 H  -5.55032299  -3.72891144  -6.52734077
 H  -5.76443873  -5.39950455  -7.08348350
 O  -7.17578421  -3.19874273  -3.66779581
 N  -5.34114007  -4.43116552  -3.17728076
 H  -4.80214890  -5.25891256  -3.36791263
 C  -4.96255783  -3.67413954  -2.00610383
 H  -5.45493198  -2.70719959  -2.07383350
 C  -3.44508075  -3.52583851  -2.00811793
 C  -5.40995193  -4.36640293  -0.69778187
 H  -4.93748065  -3.83525219   0.14134528
 O  -2.71596043  -4.50480325  -2.19598839
 C  -6.91415783  -4.32528114  -0.54030916
 H  -7.27267001  -3.29285043  -0.47750559
 H  -7.39501771  -4.80094699  -1.39435653
 H  -7.20220219  -4.86377038   0.36167947
 O  -5.03740399  -5.73671617  -0.68928184
 H  -4.07777418  -5.78436829  -0.77514600
 N  -2.97110396  -2.27589341  -1.78110930
 H  -3.58127289  -1.57657767  -1.37425723
 C  -1.57313815  -2.03179202  -1.48111589
 H  -1.11692036  -2.97450823  -1.16295956
 C  -1.55578179  -1.02407133  -0.33087247
 C  -0.75678658  -1.51417632  -2.68821010
 H   0.27538990  -1.45326863  -2.32289530
 O  -2.55353938  -0.41252915   0.01231780
 C  -0.78725074  -2.50861197  -3.84533679
 H  -1.76692532  -2.50835878  -4.32440213
 H  -0.57336092  -3.52305494  -3.50699395
 H  -0.04873656  -2.22616223  -4.59792657
 C  -1.19210316  -0.12465260  -3.15208284
 H  -2.23885644  -0.14363091  -3.46160630
 H  -1.07884471   0.61971338  -2.36174654
 H  -0.59260597   0.19619251  -4.00778918
 N  -0.34321609  -0.82610945   0.24845975
 H   0.47611923  -1.26930984  -0.12779347
 C  -0.15381912   0.28441011   1.16825530
 H  -0.80696696   1.09053891   0.81291110
 C   1.27392009   0.77485772   1.06426653
 C  -0.57452650  -0.00365784   2.61504900
 H  -1.66780310  -0.05116481   2.57289149
 O   2.21269270   0.20545359   1.62269678
 C  -0.15956343   1.15659071   3.53055633
 H   0.93612880   1.17113485   3.59547932
 H  -0.53241479   0.93116878   4.53451936
 C  -0.04564069  -1.31979254   3.17719032
 H   1.04473183  -1.30389804   3.19479468
 H  -0.37278158  -2.16840128   2.57628692
 H  -0.41062978  -1.46007096   4.19593119
 C  -0.66834933   2.52699794   3.09958667
 H  -0.40997939   3.27997136   3.84777688
 H  -0.22290298   2.84727304   2.16017046
 H  -1.75598567   2.53045263   2.98395306
 N   1.42355241   1.88300750   0.31780439
 H   0.75801717   2.09240865  -0.43324342
 C   2.71014036   2.48275036   0.06961322
 H   3.39991751   1.73068342  -0.33259981
 C   3.27204813   3.04591452   1.38095118
 C   2.50557152   3.60358190  -0.94626688
 H   1.87384766   4.36398534  -0.48390330
 H   3.44784471   4.05436850  -1.25345746
 O   2.56704678   3.64304788   2.18721227
 C   1.78913174   3.07747282  -2.20715376
 O   0.65430801   2.54954602  -2.03899302
 O   2.35587032   3.26389344  -3.28540337
 N   4.59500575   2.85940606   1.56963361
 H   5.19007227   2.43810097   0.87273929
 C   5.29135606   3.54567337   2.63064402
 H   4.97318651   4.59159990   2.63189262
 C   6.77010117   3.48812346   2.26889737
 C   4.97907096   3.02568556   4.04191876
 H   3.94012141   3.29013879   4.25040018
 H   5.60395432   3.56398057   4.75931001
 O   7.19656842   2.72169707   1.41135949
 C   5.17037416   1.55456475   4.27163215
 C   5.85093119   0.89788244   5.25349476
 H   6.51301460   1.27035417   6.02614149
 N   4.50049708   0.60062676   3.55139917
 H   3.83702520   0.72721678   2.77723029
 C   4.77635642  -0.58001521   4.09171553
 H   4.32862197  -1.50637835   3.74724059
 N   5.59621842  -0.43972029   5.12838170
 N   7.56975730   4.35776467   2.92818691
 H   7.20373057   4.86532561   3.71544310
 C   9.01089466   4.36654929   2.71121673
 H   9.15035413   4.19607648   1.64226175
 C   9.63084389   3.20845188   3.48573083
 C   9.60009245   5.70785367   3.10697762
 H   9.08338319   6.46934436   2.51635558
 H   9.37572132   5.89764376   4.15918944
 O   10.05811552   3.31822187   4.63088324
 C   11.11034121   5.85538605   2.88413896
 H   11.61625942   5.21141683   3.60871813
 C   11.52990412   5.42367147   1.48321169
 H   10.95327316   5.96591153   0.72650931
 H   12.58778722   5.64375293   1.31926942
 H   11.38772065   4.35248050   1.32240299
 C   11.51738217   7.30147800   3.15658789
 H   11.04846299   7.96977235   2.43055050
 H   12.60018429   7.42495390   3.08215454
 H   11.21138461   7.61473154   4.15717798
 N   9.66323939   2.02715760   2.82573346
 H   9.13403548   1.86439246   1.97664927
 C   10.21473956   0.86611703   3.46017018
 H   11.09480367   1.15341305   4.04133990
 C   10.60829122  -0.16957856   2.33706330
 C   9.19638846   0.18190781   4.37121190
 H   8.42307363  -0.27348355   3.74654653
 H   8.71128142   0.95150325   4.97218479
 O   11.64535794  -0.82100076   2.54090569
 C   9.84837327  -0.85305026   5.27825262
 H   10.48125038  -1.52888892   4.69234091
 H   10.51923984  -0.34187163   5.97451318
 C   8.83164429  -1.66548789   6.05033633
 H   8.19239553  -2.19506047   5.33871749
 H   9.33472217  -2.41794445   6.66861699
 N   8.00008061  -0.76824728   6.88594220
 H   8.54910895  -0.04537318   7.33383497
 N   6.46678173  -2.45914889   7.40425685
 H   5.96467790  -2.90223848   8.15782388
 H   7.03692197  -3.10550586   6.87686070
 N   6.53808501  -0.49103238   8.68116003
 H   5.62212971  -0.71493107   9.04016434
 H   6.71362129   0.50467579   8.63390364
 C   7.02401788  -1.25096345   7.66675292
 O   9.79360312  -0.22527774   1.39685645
 H   5.91883469  -1.17663645   5.75977991
