21
conf-420
 N  -6.35197999   0.74186680   6.43449937
 H  -5.71997552   0.53829109   7.21009004
 H  -7.25495095   0.26661311   6.57375085
 H  -6.49697805   1.75259807   6.37127577
 C  -5.80243385   0.28602933   5.14969247
 H  -5.36686608  -0.70868304   5.27064460
 C  -4.72458544   1.27282784   4.70078387
 C  -6.90479500   0.22812373   4.08949449
 H  -7.33008693   1.22651048   3.97556495
 H  -6.50202326  -0.06430270   3.12079086
 O  -4.82568721   2.46998716   4.94619702
 C  -8.04910623  -0.70699976   4.46739645
 N  -8.62867575  -1.35740929   3.43307148
 H  -9.40226087  -1.96845132   3.63053745
 H  -8.32083938  -1.24049961   2.48581511
 O  -8.44212970  -0.82945780   5.61812362
 N  -3.69212586   0.73543335   4.00505982
 H  -3.74723518  -0.22174114   3.68868789
 C  -2.73331629   1.54566950   3.26295381
 H  -3.10455027   2.57223622   3.21544123
 C  -2.66135780   0.93031302   1.87131570
 C  -1.34298148   1.56909885   3.94483483
 H  -1.07270558   0.52463681   4.12587297
 O  -2.66618762  -0.27951810   1.71233793
 C  -1.43591091   2.29167481   5.29210246
 H  -2.36700055   2.01665104   5.78932190
 H  -1.51411321   3.36494082   5.08379255
 C  -0.27345424   2.23533893   3.07278579
 H  -0.58323455   3.25560424   2.81497031
 H   0.66871490   2.31431108   3.61628635
 H  -0.06117236   1.70090113   2.13743188
 C  -0.25607914   2.01974380   6.21620904
 H  -0.36086030   2.57344584   7.15092809
 H  -0.19955057   0.95510769   6.46038733
 H   0.69498992   2.30481794   5.76424440
 N  -2.58180968   1.80625961   0.82855369
 H  -2.31807284   2.75194347   1.05024006
 C  -2.12625520   1.32977425  -0.47457995
 H  -2.59375765   0.35613823  -0.62088183
 C  -0.58806648   1.17334057  -0.46582254
 C  -2.51603585   2.30759327  -1.56854855
 H  -2.28825975   1.88211667  -2.54921491
 H  -3.58016057   2.53669789  -1.51716696
 H  -1.93433754   3.22483890  -1.45700095
 O   0.13540500   2.18079875  -0.28353168
 N  -0.14161834  -0.10391492  -0.62714391
 H  -0.81598196  -0.84662269  -0.65933809
 C   1.26941733  -0.43832772  -0.74504548
 H   1.79376865   0.24231569  -0.06892719
 C   1.69478030  -0.19202746  -2.19611490
 C   1.52585999  -1.87647095  -0.32580429
 H   0.98431519  -2.54033626  -1.01258688
 O   1.62213267  -1.05586840  -3.06708345
 C   3.00585531  -2.21494557  -0.32459945
 H   3.42808669  -2.09620498  -1.32230615
 H   3.15643937  -3.24559508   0.00185450
 H   3.52913027  -1.54850586   0.36335348
 O   1.00469893  -2.00210083   1.00003559
 H   1.08998742  -2.92148349   1.26246582
 N   2.12862536   1.06544591  -2.44895101
 H   1.99013300   1.70963140  -1.67778696
 C   1.94195371   1.64706621  -3.77076907
 H   1.14918589   1.09456074  -4.29316426
 C   3.22699866   1.51202249  -4.59256314
 C   1.51578098   3.10012327  -3.63054190
 H   2.31797934   3.66866459  -3.14040425
 H   0.62978941   3.14531109  -2.98582811
 O   3.79924098   2.48608539  -5.07429645
 O   1.15868801   3.65607484  -4.87598508
 H   1.98082720   3.70443021  -5.37657269
 N   3.67134480   0.24958153  -4.75057335
 H   3.17311776  -0.50782596  -4.29805090
 C   4.92572060  -0.00763381  -5.41068248
 H   4.83700522  -0.88938688  -6.04606318
 H   5.15246524   0.87643920  -6.01093309
 C   6.03194347  -0.30306377  -4.39742616
 O   6.35124786  -1.44740900  -4.10995232
 N   6.60988209   0.79057462  -3.83210882
 H   6.16297432   1.70308572  -3.81808306
 C   7.51856732   0.66212129  -2.72903296
 H   7.30960575  -0.26237429  -2.17526982
 C   7.28156854   1.90386494  -1.81555767
 C   8.99587824   0.69023985  -3.12285326
 H   9.18984407   1.57436636  -3.73801718
 H   9.56634829   0.80353981  -2.19570147
 O   7.85533850   1.91289920  -0.72462721
 C   9.44685672  -0.56185950  -3.85728162
 H   9.21075670  -1.43827221  -3.24166602
 H   8.87525247  -0.66948041  -4.77570879
 C   10.93780785  -0.53395861  -4.14841876
 H   11.47705734  -0.34884056  -3.21370524
 H   11.16392132   0.30327398  -4.81572492
 C   11.46583417  -1.81887735  -4.75666779
 H   12.55500272  -1.78643941  -4.81603092
 H   11.20637186  -2.65404809  -4.10026136
 N   10.90898212  -2.08024204  -6.10906983
 H   11.25526470  -2.95468348  -6.50499126
 H   11.14474582  -1.32881706  -6.75712146
 H   9.89232837  -2.14359808  -6.07855642
 O   6.51701223   2.77132341  -2.30310171
