21
conf-797
 N  -8.13295290   2.90641281   3.09962862
 H  -7.82794258   3.43344705   3.92122789
 H  -9.15148329   2.85101632   3.11249825
 H  -7.84428059   3.42975361   2.26894890
 C  -7.51479370   1.56111074   3.07130879
 H  -7.70024899   1.05974248   4.02245101
 C  -6.01237587   1.70510524   2.84038173
 C  -8.08676864   0.71777806   1.92752217
 H  -9.14864359   0.55071797   2.09830980
 H  -7.95588757   1.26793401   0.99229628
 O  -5.59186037   2.30961631   1.83749608
 C  -7.40381865  -0.63901038   1.86799750
 N  -6.26111020  -0.66834039   1.13168402
 H  -5.62565357  -1.42317185   1.35085782
 H  -5.84920929   0.20637670   0.85067478
 O  -7.85466700  -1.60925094   2.45120753
 N  -5.22042535   1.12536015   3.78304802
 H  -5.59088104   0.33041379   4.27837263
 C  -3.78094334   1.14131629   3.58010576
 H  -3.55638644   2.10056688   3.11019992
 C  -3.33156977   0.02081737   2.61105071
 C  -3.01270746   1.07803463   4.92216311
 H  -3.20672414   2.04160421   5.40121140
 O  -3.59622845  -1.18083647   2.81326547
 C  -1.51008627   0.96608846   4.63817450
 H  -1.25060672   1.65005820   3.82633590
 H  -1.32642238  -0.04786390   4.26413163
 C  -3.49540786  -0.04347828   5.83960049
 H  -3.47874247  -0.99531235   5.30432599
 H  -2.84174975  -0.13631993   6.70620432
 H  -4.50643758   0.14539666   6.20349652
 C  -0.63180923   1.27441039   5.84143063
 H   0.42293192   1.18296757   5.57994176
 H  -0.80577343   2.29580847   6.18953202
 H  -0.82999518   0.60153760   6.67563591
 N  -2.60933009   0.49959497   1.53446685
 H  -2.28996156   1.45275597   1.62058349
 C  -1.62966456  -0.36192508   0.88561577
 H  -1.75746047  -1.36087913   1.30750210
 C  -0.23666481   0.16410424   1.22164843
 C  -1.82490769  -0.40273042  -0.62800238
 H  -1.02182630  -0.98348838  -1.09066672
 H  -2.78626653  -0.85241428  -0.87651685
 H  -1.79021842   0.60846143  -1.04204624
 O  -0.04227487   1.32684373   1.53792893
 N   0.77677229  -0.74273330   1.11956782
 H   0.58699716  -1.58827451   0.60330374
 C   2.13479076  -0.26582165   0.93807330
 H   2.28252487   0.59103742   1.59516779
 C   2.33628820   0.13399601  -0.52790330
 C   3.12704406  -1.38381852   1.30159207
 H   4.14140652  -1.03116693   1.07112635
 O   1.57237912  -0.19980335  -1.41539487
 C   3.04826436  -1.80284152   2.74958436
 H   3.26894548  -0.95967783   3.40992634
 H   3.76888399  -2.59932547   2.94195197
 H   2.05221992  -2.17460340   2.98736849
 O   2.84428068  -2.51653870   0.48587359
 H   3.26102552  -2.36613969  -0.37437250
 N   3.45070669   0.87041660  -0.77804131
 H   4.16223611   0.90883042  -0.06682577
 C   3.95068132   0.91509575  -2.13923681
 H   3.11461717   1.16257604  -2.79457420
 C   4.50122386  -0.46931417  -2.53433853
 C   4.99808267   2.00516958  -2.23880449
 H   4.52779510   2.95783130  -1.97785233
 H   5.38113564   2.07136917  -3.26424309
 O   4.55098249  -1.40947476  -1.74577961
 O   6.03142702   1.67605310  -1.31172045
 H   6.80566382   2.20794719  -1.51507526
 N   4.94788534  -0.58504430  -3.79617117
 H   4.81006970   0.12612272  -4.49362548
 C   5.43507785  -1.85065203  -4.27312341
 H   6.29670191  -2.18547653  -3.69413479
 H   4.67757142  -2.63278171  -4.16747094
 C   5.81709373  -1.67482463  -5.73902761
 O   5.53998257  -0.66384544  -6.36388310
 N   6.49223274  -2.72146513  -6.27673303
 H   6.42904142  -3.65801753  -5.88373298
 C   6.71451283  -2.80636312  -7.69149960
 H   5.97319436  -2.19954835  -8.22994450
 C   6.54962961  -4.31577116  -8.05913602
 C   8.11499666  -2.38393866  -8.13734671
 H   8.86688894  -2.94437388  -7.57250259
 H   8.21175307  -2.67606473  -9.18785710
 O   6.57070344  -4.59959983  -9.25856203
 C   8.36450705  -0.89168807  -7.99075533
 H   7.56979652  -0.34463170  -8.50957790
 H   8.30355726  -0.60247464  -6.94509894
 C   9.71175359  -0.48048093  -8.55556916
 H   9.77565743  -0.77508941  -9.60670539
 H   10.50632052  -1.01137519  -8.02443886
 C   9.95725820   1.00767063  -8.44377889
 H   9.17210261   1.54175307  -8.98412357
 H   9.88403054   1.30316190  -7.39455786
 N   11.28370253   1.40491875  -8.97851679
 H   11.44998875   2.40855654  -8.89796980
 H   11.36886979   1.15768096  -9.96389487
 H   12.03441256   0.92813497  -8.48021688
 O   6.41047840  -5.08074090  -7.07773458
