21
conf-727
 N  -8.50004118   2.70474531   3.42645333
 H  -8.35701123   2.72208962   4.43696237
 H  -9.48778494   2.51841321   3.20482794
 H  -8.21983095   3.60463972   3.03015130
 C  -7.69614732   1.65527251   2.78510394
 H  -7.77245490   0.73330294   3.36750332
 C  -6.23918851   2.11128845   2.73608825
 C  -8.19177693   1.39160937   1.36295966
 H  -8.11610685   2.31662189   0.78902295
 H  -7.56952330   0.65056621   0.86281247
 O  -5.93977180   3.29464841   2.61977315
 C  -9.65057506   0.94971026   1.31370244
 N  -9.95443957   0.07213232   0.33055511
 H  -10.90854146  -0.23298799   0.24504735
 H  -9.26569107  -0.27361714  -0.31118569
 O  -10.49417554   1.38765241   2.08185746
 N  -5.31018924   1.13034697   2.78344749
 H  -5.55133236   0.15105077   2.74968430
 C  -3.89957067   1.42518509   2.61284082
 H  -3.80190759   2.17883853   1.82680937
 C  -3.25730361   0.11853942   2.14389563
 C  -3.27788485   2.00506744   3.90966859
 H  -4.07302501   2.62088628   4.34375887
 O  -3.79347044  -0.96382653   2.31180721
 C  -2.10495996   2.94761509   3.63975709
 H  -1.30033096   2.42428979   3.11371334
 H  -1.68931586   3.22331907   4.61576775
 C  -2.90186887   0.91614354   4.91442812
 H  -2.04282975   0.34233380   4.55950613
 H  -2.63979613   1.36564748   5.87430055
 H  -3.73382916   0.22571146   5.07020542
 C  -2.49725825   4.22498601   2.90872640
 H  -1.65138030   4.90984562   2.83479845
 H  -2.85294700   4.02492963   1.89342090
 H  -3.30257209   4.74184115   3.43950921
 N  -2.03320101   0.24346489   1.59016738
 H  -1.60024484   1.13374914   1.40376407
 C  -1.25123068  -0.90206258   1.18182422
 H  -1.27376970  -1.64581376   1.98274730
 C   0.16374283  -0.37000781   0.99327996
 C  -1.79048979  -1.54921903  -0.09481582
 H  -1.15743560  -2.38709812  -0.39138415
 H  -2.80303973  -1.90669924   0.08293067
 H  -1.81237934  -0.81882304  -0.90757216
 O   0.37805987   0.82045818   0.80791965
 N   1.15392721  -1.30259882   1.01917397
 H   0.88375315  -2.26234022   0.86906287
 C   2.50965396  -0.92926044   0.62243743
 H   2.62204461   0.11637070   0.91692252
 C   2.62923352  -1.06968671  -0.89306128
 C   3.53643951  -1.75712077   1.39534947
 H   3.40736328  -2.81316858   1.11947270
 O   3.18736587  -2.02389961  -1.44329198
 C   4.96175073  -1.31215300   1.13597435
 H   5.22740575  -1.43497260   0.08609692
 H   5.64255493  -1.90122996   1.75176753
 H   5.06355129  -0.26061809   1.41305144
 O   3.32473967  -1.57830226   2.79292760
 H   2.38117723  -1.68242232   2.95045808
 N   2.03723867  -0.08988220  -1.60327223
 H   1.55874628   0.66948681  -1.13323104
 C   1.95029174  -0.16144388  -3.04774612
 H   1.89617133  -1.22161781  -3.31316480
 C   3.20217696   0.44585355  -3.68604368
 C   0.70179271   0.56346473  -3.51061719
 H  -0.17186045   0.07540573  -3.06853744
 H   0.62799944   0.50911754  -4.60184372
 O   3.16272166   1.48355936  -4.35332866
 O   0.69968172   1.90215868  -3.06263111
 H   1.42068687   2.32487503  -3.54606336
 N   4.34961925  -0.20650611  -3.45860090
 H   4.33516291  -1.06637012  -2.92007093
 C   5.58345543   0.26469891  -4.04540925
 H   5.54846191   1.35729006  -4.03146487
 H   6.43341559  -0.07802270  -3.45839051
 C   5.79330069  -0.23577634  -5.47216834
 O   6.77165294  -0.89139038  -5.79968614
 N   4.78935092   0.08406492  -6.32969211
 H   4.14955339   0.85219372  -6.13669487
 C   4.88804874  -0.14791908  -7.73824111
 H   5.94051639  -0.19911908  -8.04952038
 C   4.18111565   1.06010500  -8.42632216
 C   4.16203035  -1.41055840  -8.20574472
 H   3.15136179  -1.41513689  -7.78471235
 H   4.06610438  -1.35090425  -9.29442139
 O   4.26782149   1.13236774  -9.65418136
 C   4.89363756  -2.68412066  -7.81265658
 H   5.88199276  -2.68326459  -8.28865245
 H   5.07310198  -2.67650819  -6.74098586
 C   4.13561967  -3.93206195  -8.23245561
 H   3.92682567  -3.87694497  -9.30563054
 H   3.16812436  -3.95982187  -7.72211690
 C   4.88732411  -5.22008852  -7.95741656
 H   4.36062849  -6.06605738  -8.40213114
 H   5.86844851  -5.16601886  -8.43724280
 N   5.07662407  -5.46941933  -6.50508154
 H   5.61237586  -6.31958234  -6.32759733
 H   4.18095082  -5.55870763  -6.02535985
 H   5.57718444  -4.69782323  -6.06528435
 O   3.59509762   1.84046562  -7.63981481
