21
conf-197
 N  -7.11766319  -1.57164549   4.98436925
 H  -6.89395938  -1.41048464   5.96831440
 H  -7.73281560  -2.38214595   4.91867894
 H  -7.62335366  -0.74781399   4.64829891
 C  -5.89473410  -1.74665612   4.17688041
 H  -5.26796064  -2.50726004   4.65016599
 C  -5.11778879  -0.43161624   4.10495677
 C  -6.23653196  -2.19355382   2.74710781
 H  -6.64365188  -3.20558456   2.77503401
 H  -6.99137658  -1.51498708   2.35244653
 O  -5.69246423   0.64603856   4.04077760
 C  -5.03522331  -2.10916989   1.83569333
 N  -4.06768015  -3.03676147   2.05426398
 H  -3.17119513  -2.88236752   1.62603783
 H  -4.19928992  -3.77451172   2.71669019
 O  -4.90865171  -1.22693701   1.00129524
 N  -3.75867080  -0.55196263   4.10259581
 H  -3.38256690  -1.47346315   3.94328071
 C  -2.94662565   0.52333737   3.54209942
 H  -3.60147652   1.36691457   3.32811574
 C  -2.36195844   0.01705528   2.22669804
 C  -1.83044675   0.97403087   4.49696748
 H  -1.26537899   0.06997975   4.75364431
 O  -1.60157913  -0.97899776   2.19585872
 C  -2.40468868   1.55833842   5.79678724
 H  -1.56096674   1.80770401   6.44761337
 H  -2.96984308   0.77858333   6.31898749
 C  -0.86449460   1.93026819   3.79150590
 H  -1.38532026   2.82962194   3.44636667
 H  -0.06141048   2.23532716   4.46687713
 H  -0.41322322   1.44168470   2.92273581
 C  -3.28617591   2.78907078   5.61365708
 H  -3.62458834   3.16041707   6.58284656
 H  -2.73931685   3.59971695   5.12417333
 H  -4.17055945   2.56761097   5.01265626
 N  -2.74816026   0.73352187   1.13613902
 H  -3.23198370   1.60409400   1.27404028
 C  -2.16206433   0.50668576  -0.16797616
 H  -1.80978725  -0.52930640  -0.15296317
 C  -0.97735753   1.45111048  -0.33747962
 C  -3.20250175   0.71697641  -1.25326795
 H  -2.78382113   0.48646119  -2.23537024
 H  -4.05674046   0.06499399  -1.06434064
 H  -3.53822920   1.75538722  -1.25603654
 O  -1.06591556   2.64573628  -0.05610452
 N   0.14777976   0.91818503  -0.84826753
 H   0.18575308  -0.03691175  -1.17481966
 C   1.30226053   1.73198645  -1.16693388
 H   0.95583689   2.72579361  -1.46533197
 C   2.00955885   1.02638700  -2.31802187
 C   2.22694096   1.90831208   0.06743382
 H   2.60428783   0.92092042   0.36016713
 O   1.94723277  -0.19019821  -2.44820609
 C   3.38803172   2.84861269  -0.19850605
 H   4.07751239   2.44687786  -0.94431538
 H   3.93732746   3.00160713   0.73213107
 H   3.01842165   3.82377603  -0.53719358
 O   1.47358313   2.39598106   1.17146336
 H   0.67494284   2.80932455   0.81851793
 N   2.71980096   1.81204010  -3.16098211
 H   2.89192357   2.76630091  -2.88602297
 C   3.66580249   1.20663025  -4.08917087
 H   3.20582174   0.27889517  -4.44038907
 C   4.97483474   0.88622808  -3.34624469
 C   3.91999826   2.11292534  -5.26943922
 H   4.49480582   2.99278067  -4.95825473
 H   2.95495736   2.43890618  -5.66922021
 O   5.96438063   1.59927305  -3.41072081
 O   4.63215877   1.32948406  -6.22444558
 H   4.95336216   1.91004743  -6.91760464
 N   4.91867843  -0.21259027  -2.55292456
 H   4.05876408  -0.74068032  -2.47477932
 C   6.11283214  -0.70323672  -1.91011200
 H   6.64709937   0.10741249  -1.41153450
 H   5.81889211  -1.42717241  -1.14774389
 C   7.12719915  -1.38024946  -2.84396098
 O   8.30104332  -1.48595179  -2.52630404
 N   6.61840303  -1.88841708  -3.98750195
 H   5.68368317  -1.69014400  -4.31713038
 C   7.44525491  -2.47079906  -5.00306680
 H   8.34899606  -1.86488472  -5.16048464
 C   6.56817241  -2.46693650  -6.29419895
 C   7.87530616  -3.90152613  -4.66550141
 H   8.23551398  -3.90291823  -3.63599049
 H   6.99960105  -4.55777028  -4.70008935
 O   7.13837913  -2.77766842  -7.34884355
 C   8.97224965  -4.40472877  -5.59569949
 H   8.66201642  -4.27082556  -6.63372084
 H   9.85531713  -3.77106105  -5.45337009
 C   9.34416811  -5.84924335  -5.31388592
 H   8.47745489  -6.49306953  -5.49382811
 H   9.59993150  -5.95250833  -4.25451452
 C   10.51799568  -6.34297120  -6.13809272
 H   11.36064780  -5.66070455  -5.99534669
 H   10.83963866  -7.32529237  -5.78834731
 N   10.20197316  -6.41870955  -7.58743122
 H   11.01576199  -6.67382954  -8.14727620
 H   9.86398837  -5.51917630  -7.92968762
 H   9.46816627  -7.10266607  -7.77193648
 O   5.36896840  -2.15080051  -6.13476352
