21
conf-549
 N  -0.34976987  -3.98866292   2.61213043
 H   0.65785602  -3.92032206   2.47069162
 H  -0.54010873  -4.43128219   3.52694077
 H  -0.72510611  -4.54733456   1.84818732
 C  -0.95742573  -2.64878365   2.60122620
 H  -0.66231900  -2.13347045   3.51949170
 C  -0.45180829  -1.88683987   1.37707739
 C  -2.49340614  -2.71768684   2.60261178
 H  -2.85471770  -2.98139483   1.60058648
 H  -2.87097379  -1.71958935   2.83857634
 O   0.08824904  -2.47468217   0.44714252
 C  -3.02872356  -3.70981833   3.63437883
 H  -2.92965695  -4.73864810   3.28006483
 H  -4.07786976  -3.50780712   3.85992406
 C  -2.18709328  -3.47869230   4.89099176
 O  -2.42457628  -2.44067138   5.51955345
 O  -1.30851024  -4.33149817   5.13889109
 N  -0.70652537  -0.55361831   1.38371131
 H  -1.04232717  -0.14046667   2.23513514
 C  -0.27966196   0.35049922   0.33237321
 H  -0.76472566   1.30723963   0.55556250
 C   1.23862980   0.58732764   0.36802805
 C  -0.76859065  -0.09231868  -1.05583683
 H  -0.51898102   0.69971564  -1.76575028
 H  -0.22726954  -0.98258418  -1.35862257
 O   2.00382015  -0.00980891   1.09835325
 C  -2.24388176  -0.35494848  -1.05235772
 C  -2.74620461  -1.65900149  -1.03175499
 H  -2.05387749  -2.49434453  -1.04855468
 C  -3.15949415   0.69568297  -1.00755931
 H  -2.78421880   1.71286664  -1.01631936
 C  -4.11469304  -1.90449211  -0.96255234
 H  -4.49834533  -2.91619440  -0.93343354
 C  -4.53242029   0.46631044  -0.95038394
 H  -5.21953655   1.30484005  -0.91974866
 O  -6.34190303  -1.14025145  -0.84992107
 H  -6.84479260  -0.32222354  -0.82692393
 C  -5.00989005  -0.84081861  -0.91896936
 N   1.67644149   1.53424480  -0.52343971
 H   1.01424752   2.22987365  -0.82218940
 C   3.05591899   1.97725501  -0.46100305
 H   3.68928004   1.09543339  -0.32676028
 C   3.31360523   2.87412602   0.73744865
 C   3.45328806   2.70062581  -1.74667290
 H   2.75017951   3.51650313  -1.92202671
 H   4.43777693   3.15025687  -1.59832695
 O   4.38124549   2.98578746   1.28197840
 C   3.49302225   1.75337717  -2.93645934
 H   2.51056297   1.29211521  -3.07219917
 H   4.18659090   0.93519167  -2.71104619
 C   3.91041279   2.42074652  -4.23698123
 H   4.88759196   2.90126356  -4.11374505
 H   4.02898136   1.65920020  -5.01321747
 C   2.91938457   3.45490653  -4.72813916
 H   1.92828068   2.99980010  -4.80457636
 H   2.84678492   4.26899317  -4.00408897
 N   3.31105552   4.02349033  -6.04261633
 H   2.64774619   4.72338597  -6.37556426
 H   3.37048252   3.29369080  -6.75103829
 H   4.22564804   4.46928981  -5.98708985
 O   2.21845635   3.57481619   1.10679313
 H   2.48600972   4.12313687   1.85354086
