21
conf-123
 N   0.15482710  -3.64641083   3.24169896
 H   0.89548268  -3.19729520   3.78294868
 H  -0.32028246  -4.33370543   3.82361603
 H   0.60178879  -4.13297676   2.46215869
 C  -0.78810132  -2.64687439   2.70404726
 H  -1.03629186  -1.93329533   3.49562114
 C  -0.13137921  -1.86537351   1.56305098
 C  -2.09271814  -3.28850857   2.22075701
 H  -2.67926076  -2.51908173   1.70894275
 H  -2.68696907  -3.60988626   3.07996107
 O   0.73399532  -2.34675112   0.85066737
 C  -1.89907172  -4.47100168   1.26929937
 H  -1.78759372  -5.41359290   1.80560757
 H  -1.03416603  -4.33521843   0.61688799
 C  -3.19041958  -4.58850236   0.39517351
 O  -2.99603806  -4.59008146  -0.83554146
 O  -4.25046652  -4.68646358   1.02249538
 N  -0.59673269  -0.59669928   1.40456761
 H  -1.40494735  -0.30572692   1.92314100
 C  -0.18070977   0.25681737   0.30176275
 H  -0.69533507   1.20786952   0.47878557
 C   1.33104889   0.54781490   0.31548771
 C  -0.62543024  -0.26397379  -1.07557257
 H  -0.26978975   0.44080093  -1.82698282
 H  -0.13153167  -1.21572391  -1.26374562
 O   1.97180817   0.69567994  -0.71405296
 C  -2.11519633  -0.41512896  -1.12282874
 C  -2.70892840  -1.67287085  -0.98692871
 H  -2.07457707  -2.54588459  -0.90216009
 C  -2.94861713   0.69514526  -1.24263086
 H  -2.49564763   1.67674397  -1.33561222
 C  -4.09292476  -1.82222328  -0.95038788
 H  -4.54004852  -2.79775781  -0.81209313
 C  -4.33561112   0.56170739  -1.24312447
 H  -4.96263199   1.44016182  -1.34775529
 O  -6.26070864  -0.89149476  -1.06589874
 H  -6.69843007  -0.04269771  -1.16987934
 C  -4.90684518  -0.69861374  -1.08839895
 N   1.88659925   0.70208825   1.53684218
 H   1.36743946   0.50966010   2.37885056
 C   3.29234720   1.01837071   1.67499205
 H   3.85543820   0.49845937   0.89218594
 C   3.73689240   0.52686587   3.03306936
 C   3.54042077   2.52931640   1.51954684
 H   3.05673050   2.82504412   0.58757181
 H   3.03047610   3.05884017   2.32795236
 O   3.00419922   0.33035644   3.96976987
 C   5.00882435   2.91820454   1.46510389
 H   5.50150881   2.32315579   0.68964980
 H   5.51230842   2.68461564   2.40365121
 C   5.19470997   4.39177046   1.15268234
 H   4.69964605   4.63585133   0.20877352
 H   4.71680778   4.99396040   1.93026577
 C   6.65308913   4.78207307   1.05737961
 H   7.15224461   4.52515338   1.99477463
 H   7.12943965   4.19511123   0.26846748
 N   6.83625791   6.22814560   0.77824497
 H   7.82074266   6.49128577   0.72399953
 H   6.40601689   6.79649520   1.50696883
 H   6.39995812   6.48733827  -0.10595170
 O   5.06992388   0.34452972   3.09413609
 H   5.26453803   0.07281559   3.99937445
