21
conf-879
 N  -0.86285696  -3.93651241   2.90696686
 H   0.13570418  -4.07768831   2.75690277
 H  -1.10141663  -4.24740388   3.84687643
 H  -1.34882002  -4.52649694   2.23225405
 C  -1.21429036  -2.52214999   2.68792751
 H  -0.64743900  -1.89978868   3.39405480
 C  -0.78955213  -2.13055093   1.26942369
 C  -2.69761506  -2.25550391   2.91534243
 H  -3.28405546  -2.89007740   2.24873111
 H  -2.91957050  -1.22194815   2.64944551
 O  -0.34240627  -2.95997217   0.49406883
 C  -3.15785344  -2.47760165   4.35223773
 H  -2.58971182  -1.85213249   5.04108720
 H  -3.06807646  -3.52790760   4.64397134
 C  -4.64036738  -2.06748449   4.35964546
 O  -5.44489368  -2.96423802   4.04684565
 O  -4.87674585  -0.87947588   4.64563056
 N  -0.99530457  -0.81813532   0.95899698
 H  -1.19119636  -0.21668323   1.74014133
 C  -0.34940041  -0.15287500  -0.16382234
 H  -0.86265915   0.80877793  -0.27268233
 C   1.13141341   0.12470085   0.15638230
 C  -0.51530640  -0.90470879  -1.49273821
 H   0.06266146  -1.82236994  -1.47036920
 H  -1.56636282  -1.18093021  -1.56206339
 O   1.79596387  -0.54125232   0.93229328
 C  -0.11150228  -0.06507832  -2.67448763
 C  -0.92939604   0.96233227  -3.13405354
 H  -1.86888955   1.14911424  -2.62446256
 C   1.11431284  -0.27062050  -3.30859474
 H   1.79079388  -1.01554370  -2.90689293
 C  -0.55634966   1.75291576  -4.21885555
 H  -1.19097542   2.55075102  -4.57863745
 C   1.49637212   0.50808554  -4.40008088
 H   2.46450732   0.34676246  -4.86581806
 O   0.98340173   2.31341139  -5.92213647
 H   1.83409934   2.01843825  -6.25349143
 C   0.65031779   1.51061596  -4.86014543
 N   1.64953800   1.19995912  -0.50219994
 H   1.11927790   1.59211467  -1.26373665
 C   3.08317970   1.41583110  -0.49939736
 H   3.58686183   0.44835089  -0.61484823
 C   3.53583404   1.99840621   0.82992657
 C   3.48492808   2.31787822  -1.67105798
 H   4.57252940   2.42048365  -1.67653717
 H   3.21200121   1.77603569  -2.58627210
 O   2.88860500   2.69806525   1.56726512
 C   2.81926588   3.68505976  -1.65815664
 H   3.03159716   4.18518271  -0.70741417
 H   1.73139025   3.56142004  -1.69998890
 C   3.25221867   4.57122282  -2.81766591
 H   2.90177580   5.59219101  -2.64165167
 H   4.34576547   4.61477114  -2.87059124
 C   2.71200480   4.10858847  -4.15325173
 H   3.07980796   3.10151344  -4.37018408
 H   1.61917101   4.05665199  -4.10125963
 N   3.10439663   5.01715918  -5.25875806
 H   2.73094846   4.70693916  -6.15531889
 H   4.12020614   5.06954585  -5.34303923
 H   2.75820708   5.96163654  -5.08805870
 O   4.82325560   1.66717352   1.06861147
 H   5.05393160   2.08398587   1.90799977
