21
conf-234
 N  -0.63053214  -3.10615943   3.44183324
 H   0.30115839  -2.86747218   3.78492267
 H  -1.18714689  -3.48721384   4.20399069
 H  -0.52286838  -3.82460210   2.72194173
 C  -1.30688666  -1.95255061   2.81438594
 H  -1.22994701  -1.07839740   3.46807913
 C  -0.62520944  -1.66573495   1.48011102
 C  -2.78517753  -2.27755888   2.58935638
 H  -3.21659000  -2.58158127   3.54924010
 H  -2.84942996  -3.13673514   1.91714816
 O  -0.21052032  -2.57714032   0.77853946
 C  -3.64031373  -1.14856344   2.02240470
 H  -3.32648256  -0.88424427   1.00963171
 H  -3.60986417  -0.26704933   2.66569390
 C  -5.06924684  -1.72842725   1.98314512
 O  -5.35560406  -2.37033285   0.95813096
 O  -5.76796862  -1.52025222   2.99091104
 N  -0.57540344  -0.35266547   1.13694562
 H  -0.95726592   0.31334855   1.78513054
 C  -0.08917158   0.17887161  -0.13652331
 H  -0.47969803   1.20067678  -0.17940023
 C   1.44263802   0.26047473  -0.13026334
 C  -0.61264946  -0.59996592  -1.34795956
 H  -0.13078315  -1.57097356  -1.38746636
 H  -1.67752308  -0.77258415  -1.18432604
 O   2.16627933  -0.68792080  -0.41028422
 C  -0.41283312   0.15098544  -2.63840118
 C  -1.41239708   0.97509099  -3.16186038
 H  -2.36624090   1.05043632  -2.65491656
 C   0.79709404   0.06652939  -3.33359149
 H   1.58552334  -0.56311848  -2.93771451
 C  -1.21591095   1.69903755  -4.33376975
 H  -1.99482291   2.33546966  -4.73438953
 C   1.00797065   0.79044330  -4.50597107
 H   1.95895622   0.71228284  -5.02144974
 O   0.14207631   2.34092224  -6.14944262
 H   1.01815309   2.18864061  -6.51223363
 C  -0.00158715   1.60803246  -5.00546185
 N   1.94129366   1.47424426   0.21432083
 H   1.32193679   2.21321516   0.49535505
 C   3.36836436   1.68379265   0.38996442
 H   3.86695886   0.83755039  -0.08071356
 C   3.67660937   1.66550146   1.87448228
 C   3.80824184   2.99464034  -0.24345630
 H   3.44660219   2.99698692  -1.27344387
 H   3.32012396   3.82098236   0.27831579
 O   3.71434445   2.63917153   2.58590404
 C   5.31728283   3.18579779  -0.23583302
 H   5.77920479   2.30332032  -0.68637997
 H   5.67700280   3.23836322   0.79532968
 C   5.72841339   4.43951236  -0.98985835
 H   5.38387934   4.37597774  -2.02671266
 H   5.22831319   5.30413535  -0.54179839
 C   7.22289638   4.69895836  -0.97544402
 H   7.43633290   5.68740521  -1.38607928
 H   7.57234949   4.70091553   0.06054191
 N   7.98714063   3.67711440  -1.73678294
 H   8.99173677   3.85406046  -1.71602158
 H   7.69432837   3.64975326  -2.71319107
 H   7.83666899   2.74551990  -1.35208348
 O   3.86535823   0.41194692   2.33117062
 H   4.01534268   0.49043816   3.28157114
