21
conf-948
 N  -0.89844528  -3.11737986   3.53109352
 H   0.03046704  -2.92202502   3.90795187
 H  -1.49573669  -3.48366642   4.26949561
 H  -0.79741976  -3.83057291   2.80507304
 C  -1.50582201  -1.92968324   2.89778238
 H  -1.40757926  -1.06538843   3.56225540
 C  -0.77676826  -1.66271553   1.58305813
 C  -2.99102819  -2.18556006   2.63041143
 H  -3.46390010  -2.47468423   3.57515175
 H  -3.07576084  -3.03645267   1.94999028
 O  -0.38393532  -2.58873982   0.88761606
 C  -3.77441181  -1.01428850   2.04590209
 H  -3.40485250  -0.74790628   1.05289466
 H  -3.73539269  -0.14427477   2.70360983
 C  -5.22081187  -1.53461754   1.93412201
 O  -5.48200490  -2.15900216   0.89173611
 O  -5.96005335  -1.30339418   2.90744000
 N  -0.68933671  -0.35480485   1.23487281
 H  -0.94634833   0.33462043   1.91936712
 C  -0.07658057   0.14491113   0.01402393
 H  -0.44445992   1.17145420  -0.09684526
 C   1.45777446   0.20996689   0.12499488
 C  -0.50680258  -0.64570937  -1.23022417
 H  -0.02696887  -1.61898769  -1.22604300
 H  -1.58222601  -0.80716405  -1.14290323
 O   2.13766559  -0.56990439   0.76887038
 C  -0.19265279   0.08856663  -2.50360942
 C  -0.95090683   1.18748200  -2.90030985
 H  -1.77799584   1.50394442  -2.27212996
 C   0.87814650  -0.29496400  -3.30866061
 H   1.50379419  -1.12644516  -2.99876389
 C  -0.66301168   1.88317362  -4.06979188
 H  -1.25623462   2.73445567  -4.37446415
 C   1.18199897   0.39241068  -4.48218420
 H   2.03291940   0.08555272  -5.08209673
 O   0.65585478   2.20225523  -6.00390622
 H   1.41743015   1.81916405  -6.44739376
 C   0.40812962   1.48536541  -4.86471619
 N   1.99804801   1.22967578  -0.60118263
 H   1.40531673   1.76335843  -1.21522875
 C   3.43580760   1.41647416  -0.69030952
 H   3.88579782   0.52042781  -0.26307651
 C   3.82437880   2.59974982   0.17561979
 C   3.87490266   1.61821673  -2.13356644
 H   3.50323284   0.76184643  -2.71046604
 H   3.37629656   2.50989489  -2.52336213
 O   3.93509014   3.73757278  -0.21159185
 C   5.38186641   1.74708966  -2.33312274
 H   5.75625490   2.59493547  -1.75132432
 H   5.55729509   1.99618482  -3.38448751
 C   6.14011240   0.48429301  -1.96401061
 H   5.90667139   0.20018995  -0.93368241
 H   5.80930155  -0.34351894  -2.59848514
 C   7.64501264   0.63022749  -2.07365111
 H   7.95963491   1.48296658  -1.46550890
 H   8.13660444  -0.25323892  -1.66290549
 N   8.10570262   0.84344846  -3.47012977
 H   9.11955026   0.94319387  -3.52871116
 H   7.69669265   1.68967672  -3.86334577
 H   7.83243537   0.06757437  -4.07302826
 O   3.99682545   2.24217915   1.46542426
 H   4.19896489   3.05770922   1.94187429
