21
conf-205
 N  -0.67487232  -3.68173114   2.93085976
 H   0.34020481  -3.67757713   3.03042115
 H  -1.08958989  -4.05722644   3.78144870
 H  -0.89163271  -4.30472054   2.15277195
 C  -1.17612057  -2.32665398   2.62748083
 H  -0.85485327  -1.65425745   3.42892542
 C  -0.54334727  -1.87911455   1.30185090
 C  -2.70674765  -2.33534888   2.56626480
 H  -3.05512313  -2.74083455   3.52419830
 H  -3.00725264  -3.03953471   1.78334211
 O  -0.06117966  -2.70001230   0.53403440
 C  -3.38019575  -0.98401942   2.34592250
 H  -4.46374504  -1.09495021   2.40182959
 H  -3.11475306  -0.56346308   1.37454668
 C  -2.92807091  -0.06559766   3.49807376
 O  -1.90882477   0.63385596   3.28604580
 O  -3.60158429  -0.13019583   4.53429238
 N  -0.58782193  -0.54825555   1.06744950
 H  -0.96789323   0.04406453   1.80874182
 C  -0.08466311   0.11300211  -0.12668731
 H  -0.60239778   1.08138675  -0.15011400
 C   1.41365886   0.38680575   0.01306210
 C  -0.38149942  -0.61417927  -1.44158893
 H   0.17691673  -1.54383197  -1.48019131
 H  -1.44141033  -0.86865942  -1.44425125
 O   2.26971085  -0.46356213  -0.19797002
 C  -0.04952742   0.25635318  -2.62700012
 C  -0.99966317   1.11082863  -3.19461469
 H  -2.01480705   1.10900844  -2.81643437
 C   1.24363651   0.27231158  -3.15882570
 H   1.99570866  -0.38419252  -2.73757396
 C  -0.67131344   1.96415754  -4.24536545
 H  -1.41237199   2.62201000  -4.68125967
 C   1.58811284   1.13484083  -4.19413787
 H   2.60701409   1.14920431  -4.56648020
 O   0.90563435   2.84021168  -5.76821957
 H   1.83195862   2.74748424  -6.00471057
 C   0.62701523   1.98128463  -4.74282301
 N   1.74449172   1.64152100   0.39482462
 H   1.04055289   2.34857543   0.52728912
 C   3.14385671   2.02792872   0.40961767
 H   3.71916350   1.18107629   0.79086700
 C   3.36667388   3.19890245   1.33947889
 C   3.64969975   2.36010166  -1.00376915
 H   3.35176796   1.52286769  -1.64488859
 H   3.13583533   3.24663003  -1.37692042
 O   4.35500000   3.37720622   2.00426332
 C   5.15715998   2.53599628  -1.07890822
 H   5.62093419   1.62937959  -0.67822459
 H   5.48246039   3.35856201  -0.43891122
 C   5.62122626   2.78031910  -2.50564547
 H   5.29098078   1.95545879  -3.14758768
 H   5.13984882   3.68820593  -2.88381618
 C   7.12227861   2.94696778  -2.64364891
 H   7.37061678   3.29439806  -3.64810589
 H   7.45913993   3.71903321  -1.94676398
 N   7.86455239   1.69068135  -2.36266104
 H   8.87371228   1.81239830  -2.45014685
 H   7.58292602   0.94629889  -3.00022678
 H   7.68100438   1.36003894  -1.41631529
 O   2.33578505   4.07206793   1.30943582
 H   2.56225584   4.79546614   1.90695101
