62
64
N         -0.09072       -0.44806        2.62190
H          0.87658        0.88812        2.87683
H         -0.77575       -0.70060        3.33274
H          0.59923       -1.19997        2.57092
C         -0.74410       -0.30162        1.30114
H         -1.40095        0.56874        1.35025
C          0.38173       -0.02649        0.28901
C         -1.57150       -1.54931        0.92121
H         -2.39136       -1.64171        1.64448
H         -0.93058       -2.42992        1.05126
O          1.45162       -0.63297        0.35158
C         -2.13199       -1.60340       -0.51039
H         -2.68674       -2.53355       -0.65526
H         -1.30675       -1.61453       -1.23171
C         -3.00318       -0.43665       -0.92249
O         -2.74589        0.74077       -0.72399
O         -4.09650       -0.83191       -1.59106
N          0.14982        0.97126       -0.60820
H         -0.82204        1.24002       -0.75938
C          1.14362        1.32595       -1.62719
H          0.85348        2.32123       -1.98484
C          2.51699        1.48673       -0.95188
C          1.20169        0.35323       -2.82082
H          1.91446        0.76023       -3.54848
H          1.62245       -0.59226       -2.46732
O          3.54442        1.01349       -1.46851
C         -0.16154        0.12551       -3.44019
C         -0.63683       -1.17134       -3.66030
H          0.00301       -2.02170       -3.43462
C         -1.00997        1.19460       -3.77067
H         -0.66912        2.22024       -3.64782
C         -1.92569       -1.40478       -4.14343
H         -2.28012       -2.42365       -4.28325
C         -2.29921        0.98264       -4.24413
H         -2.95788        1.81256       -4.47873
O         -4.07426       -0.46770       -4.79067
H         -4.54729       -0.03360       -1.92947
C         -2.77234       -0.32456       -4.40716
N          2.51554        2.21053        0.19239
H          1.59226        2.44009        0.55126
C          3.47090        1.91004        1.25869
H          4.13355        1.14256        0.86868
C          2.73841        1.19617        2.40721
C          4.30606        3.11389        1.75964
H          4.28853        3.90036        0.99612
H          3.83183        3.54566        2.64667
O          3.27151        0.32411        3.05720
C          5.75441        2.68599        2.08140
H          5.75083        1.63520        2.40176
H          6.13308        3.24215        2.94493
C          6.75924        2.92089        0.92987
H          6.95767        3.99752        0.85435
H          7.72251        2.45486        1.17558
C          6.33746        2.50694       -0.48093
H          5.40661        2.98881       -0.78714
H          7.11093        2.77398       -1.20325
N          6.07626        1.01101       -0.63954
H          6.66466        0.58929       -1.36269
H          5.04735        0.88782       -0.92757
H          6.24430        0.49757        0.23067
O          1.49227        1.64833        2.55659
H         -4.27406       -1.40750       -4.92633
