21
conf-474
 N  -3.39743351  -0.58975527   4.10226421
 H  -4.12734639  -1.11299298   3.61656381
 H  -2.55531885  -1.16790371   4.07597520
 H  -3.67441079  -0.45014254   5.07222425
 C  -3.12661047   0.68829352   3.42072017
 H  -4.07927567   1.16342244   3.16333863
 C  -2.41537155   0.38581201   2.10317793
 C  -2.35857098   1.66320047   4.31272951
 H  -2.04885850   2.52077584   3.71422009
 H  -3.05991206   2.04624720   5.05711548
 O  -1.88406605  -0.69951266   1.90004175
 C  -1.15388320   1.08474422   5.04336358
 H  -0.38776341   0.70363377   4.36420014
 H  -1.45696078   0.25066371   5.68728317
 C  -0.51778260   2.10590419   5.95313435
 O  -0.98628216   3.17258504   6.25997160
 O   0.67024556   1.66938132   6.43114711
 N  -2.42683668   1.38089268   1.18455162
 H  -2.88855229   2.24517254   1.40321456
 C  -1.99101538   1.17031448  -0.19341464
 H  -2.26059805   0.14584349  -0.45737115
 C  -0.47696500   1.33041895  -0.28026087
 C  -2.69120512   2.14694887  -1.14343716
 H  -2.15678273   2.14470333  -2.09462103
 H  -2.59091946   3.15365313  -0.74090902
 O   0.06437561   2.32360738  -0.77142416
 C  -4.13045452   1.79481475  -1.35547365
 C  -5.22456233   2.46282934  -0.88556070
 H  -5.28061117   3.37362476  -0.30935012
 C  -4.63080919   0.64739247  -2.06989554
 C  -6.03249215   0.67268541  -1.97748389
 C  -4.00214562  -0.39391187  -2.76374632
 H  -2.91979775  -0.42759343  -2.85465906
 N  -6.37377710   1.79224962  -1.25543612
 H  -7.30736836   2.07675163  -1.03059284
 C  -6.19325995  -1.33605146  -3.23166619
 H  -6.78081842  -2.12117525  -3.69216660
 C  -6.83819225  -0.31583947  -2.54955640
 H  -7.91827442  -0.28007678  -2.46249313
 C  -4.79039316  -1.37185059  -3.34265117
 H  -4.32361266  -2.18476098  -3.88566017
 N   0.25214537   0.31673511   0.23096360
 H  -0.21736547  -0.41966334   0.75105953
 C   1.67843443   0.48016943   0.41282758
 H   1.86895813   1.55419415   0.51189734
 C   2.38491314  -0.06082932  -0.83142606
 C   2.13103845  -0.22720849   1.73895113
 H   2.14712810  -1.30665759   1.45502429
 O   3.04724544  -1.08769470  -0.84319496
 C   3.59921876   0.16950957   2.04450480
 H   4.25275713  -0.09601897   1.21388959
 H   3.91944456  -0.35252974   2.94746787
 H   3.65688211   1.24543419   2.22449312
 O   1.33842888   0.02440846   2.72704979
 N   2.15640341   0.67481017  -1.95051501
 H   1.66530379   1.55423311  -1.86355037
 C   2.89354977   0.40540060  -3.16320238
 H   3.24649665  -0.62420271  -3.10226635
 C   4.11809335   1.28968704  -3.27926232
 C   1.99765168   0.57661058  -4.39573297
 H   1.70258692   1.62418734  -4.48898852
 H   1.08707342   0.00502462  -4.20581948
 O   5.16772682   0.95594869  -3.76925853
 C   2.64575271   0.08658399  -5.68422715
 H   3.55874220   0.64477370  -5.88806717
 H   2.94050708  -0.95618107  -5.56676422
 C   1.69725339   0.20508382  -6.86574998
 H   0.75785049  -0.31637011  -6.65388829
 H   1.44539478   1.25592367  -7.02386868
 N   2.24660239  -0.27585476  -8.14597957
 H   2.89723127   0.35009392  -8.59965653
 N   2.02284086  -2.52564346  -7.55541151
 H   1.90602356  -3.47312262  -7.87754263
 H   1.42612019  -2.24264337  -6.79577095
 N   3.11387968  -1.90738759  -9.54063390
 H   3.10726514  -1.23265950  -10.29414529
 H   3.08068373  -2.87195711  -9.83618420
 C   2.43667079  -1.57550020  -8.41408249
 O   3.89519244   2.53517818  -2.80743245
 H   4.71284777   3.02957630  -2.94227332
 H   0.99553456   2.36645044   7.01641378
