21
conf-635
 N  -4.10171773   0.26628031   4.61349063
 H  -5.02211334   0.04234851   4.22914935
 H  -3.54978835  -0.59386267   4.64498187
 H  -4.22011438   0.62113432   5.56101385
 C  -3.37976866   1.23953940   3.75612036
 H  -4.02022405   2.10043560   3.53895287
 C  -2.97686297   0.53768768   2.46479655
 C  -2.12937394   1.76402148   4.46134950
 H  -2.45527226   2.21113303   5.40529412
 H  -1.48160907   0.91475659   4.69655348
 O  -2.42130914  -0.55479422   2.49694150
 C  -1.35477029   2.81057592   3.65772004
 H  -0.96458070   2.37234984   2.74188603
 H  -0.52531490   3.20870749   4.25078998
 C  -2.31734036   3.87908615   3.26110150
 O  -3.08206087   3.82116098   2.32120349
 O  -2.38666014   4.93278729   4.11962328
 N  -3.25773159   1.17964335   1.30443376
 H  -3.53804339   2.15604582   1.33662994
 C  -2.64445547   0.78379436   0.05489023
 H  -2.86777353  -0.26335655  -0.13370493
 C  -1.13438722   0.96969550   0.10728628
 C  -3.20038175   1.67868232  -1.06420762
 H  -2.96705688   2.71246622  -0.80120534
 H  -4.28076918   1.54914080  -1.09823272
 O  -0.63367668   2.03851606   0.49047224
 C  -2.58413646   1.34787523  -2.38722596
 C  -1.70977679   2.11980659  -3.10178935
 H  -1.33746271   3.11071601  -2.88953729
 C  -2.68508266   0.09485797  -3.09046880
 C  -1.87475045   0.19273466  -4.23560197
 C  -3.35640953  -1.10036959  -2.80713744
 H  -3.96087553  -1.18620941  -1.90885271
 N  -1.29791270   1.44527942  -4.23084195
 H  -0.49815885   1.71184219  -4.78025768
 C  -2.44131812  -2.03176708  -4.85434355
 H  -2.36824533  -2.86899091  -5.53801157
 C  -1.75036018  -0.85923923  -5.14006932
 H  -1.14587510  -0.76743566  -6.03609405
 C  -3.23197095  -2.15328018  -3.70010223
 H  -3.75113558  -3.08385827  -3.50730725
 N  -0.41297262  -0.08313685  -0.35609211
 H  -0.88729264  -0.84961481  -0.80236119
 C   1.01773203  -0.01706075  -0.50660242
 H   1.29029545   1.03465747  -0.43439556
 C   1.39959288  -0.58793943  -1.86649857
 C   1.83198160  -0.75993726   0.66982349
 H   2.83712113  -0.23321557   0.60653043
 O   0.67539610  -1.33439072  -2.50722964
 C   1.22325072  -0.23368107   2.02292755
 H   1.17679152   0.85484410   1.96799634
 H   1.85225703  -0.51848481   2.86973639
 H   0.21407547  -0.61311702   2.19400867
 O   1.93558062  -2.00739985   0.50447728
 N   2.64747628  -0.26029731  -2.29491771
 H   3.12150773   0.51766121  -1.87565609
 C   3.14407867  -0.75143008  -3.57345299
 H   4.14428264  -0.31337167  -3.67897335
 C   2.29336993  -0.19519400  -4.71322760
 C   3.27447958  -2.28913716  -3.59228097
 H   2.31585914  -2.72581876  -3.86919716
 H   3.46343844  -2.59629228  -2.56830146
 O   1.63166891   0.81293738  -4.64730085
 C   4.39520604  -2.78921187  -4.49251091
 H   4.19506580  -2.53842539  -5.53616360
 H   5.32730419  -2.28362184  -4.21866447
 C   4.62500409  -4.29578592  -4.39884116
 H   3.70681113  -4.84355275  -4.62740058
 H   5.35852573  -4.59132514  -5.15073975
 N   5.16700726  -4.74077405  -3.09846211
 H   6.07288574  -4.36070564  -2.86210190
 N   3.11106713  -5.28851459  -2.10141489
 H   2.63040332  -5.86560778  -1.42839378
 H   2.65917922  -5.19099331  -2.99749030
 N   5.10862948  -5.41117714  -0.88351427
 H   6.09454494  -5.63402902  -0.93850803
 H   4.60937892  -5.90725209  -0.15944376
 C   4.45582422  -5.17242709  -2.04910109
 O   2.41113511  -0.93284611  -5.83280609
 H   1.90015791  -0.48882594  -6.52054297
 H  -3.12866049   5.48368158   3.82865297
