21
conf-883
 N  -5.65720309   1.75520765   3.66421430
 H  -5.87819596   2.56440095   3.08063808
 H  -6.16640782   0.94958394   3.29258663
 H  -5.97744714   1.93372652   4.61408977
 C  -4.21176192   1.43076204   3.63475142
 H  -3.63215377   2.33963845   3.82595447
 C  -3.87306433   0.87966417   2.25589296
 C  -3.88196723   0.38973432   4.70065451
 H  -4.21309182   0.78187103   5.66391513
 H  -4.47376224  -0.50126902   4.48747518
 O  -4.56314260   0.00290636   1.74221880
 C  -2.40103334   0.02788755   4.77160608
 H  -1.80090898   0.93218769   4.91054184
 H  -2.06363256  -0.44781826   3.85103497
 C  -2.08267913  -0.91290861   5.89968654
 O  -1.46181167  -1.93964359   5.80070381
 O  -2.55743092  -0.46406233   7.08520912
 N  -2.77138064   1.38042689   1.65893298
 H  -2.20339848   2.10256741   2.07937272
 C  -2.32351990   0.90508288   0.36728675
 H  -2.39265409  -0.18646407   0.35629671
 C  -0.87094759   1.36193959   0.23292815
 C  -3.21117642   1.45600742  -0.76932254
 H  -3.19102836   2.54544404  -0.72083303
 H  -4.22967984   1.13154167  -0.55834136
 O  -0.44900468   2.34029976   0.82521016
 C  -2.77845358   0.99661332  -2.13162688
 C  -3.11282590  -0.17584087  -2.75908582
 H  -3.76679903  -0.97271341  -2.43839480
 C  -1.88552966   1.69651313  -3.02499609
 C  -1.69963450   0.88412250  -4.15447673
 C  -1.23960857   2.94215733  -2.95400554
 H  -1.36646116   3.58894205  -2.09110352
 N  -2.45849850  -0.25142821  -3.97298165
 H  -2.52397536  -1.01234784  -4.62156340
 C  -0.24299573   2.49002376  -5.12247420
 H   0.41306113   2.81163781  -5.92295325
 C  -0.88430331   1.26066383  -5.21998441
 H  -0.74916226   0.60960380  -6.07785801
 C  -0.42297338   3.32240116  -4.00769468
 H   0.08092143   4.28000222  -3.97413177
 N  -0.10383714   0.61882698  -0.60405118
 H  -0.48633802  -0.15178913  -1.13190005
 C   1.23593083   1.00057188  -0.95416054
 H   1.26565466   2.06262546  -1.21732707
 C   1.64538690   0.19035597  -2.18409416
 C   2.34217882   0.87067497   0.24081675
 H   2.05288062   1.73969974   0.90285050
 O   1.12310640  -0.88142882  -2.45781857
 C   2.08843016  -0.39238874   1.12413902
 H   1.12717326  -0.32201064   1.63642608
 H   2.88745890  -0.45271294   1.86571736
 H   2.10536253  -1.30583461   0.52229005
 O   3.50687806   0.92812095  -0.23060523
 N   2.63948137   0.70950472  -2.93495194
 H   3.11119008   1.54832212  -2.64085725
 C   3.34408240  -0.15065223  -3.86285404
 H   3.30361144  -1.17673401  -3.47940928
 C   4.78108282   0.29717067  -3.91371626
 C   2.66643804  -0.11532720  -5.23850717
 H   2.63545904   0.92705228  -5.57592062
 H   1.63278130  -0.43287532  -5.06741911
 O   5.18604084   1.39454084  -3.63121447
 C   3.29136182  -0.98074627  -6.32890685
 H   2.71423223  -0.84644755  -7.24672265
 H   4.30394982  -0.64757914  -6.55587044
 C   3.31669680  -2.46222694  -5.97460737
 H   3.84667277  -2.62715993  -5.03922405
 H   2.29683221  -2.82481667  -5.83222302
 N   3.90969808  -3.31774594  -7.02222174
 H   3.29876019  -3.54691882  -7.79249572
 N   6.11822285  -2.76169663  -6.49606172
 H   7.05539749  -2.61514965  -6.83896591
 H   5.80811250  -2.10466281  -5.79714504
 N   5.63021370  -4.02341012  -8.41293461
 H   4.99590905  -4.74017586  -8.74715351
 H   6.59743239  -4.32095357  -8.41093047
 C   5.22104170  -3.35582467  -7.29502961
 O   5.60301918  -0.68235727  -4.36235335
 H   6.49197408  -0.29814559  -4.38677732
 H  -2.29238808  -1.11576583   7.74605911
