21
conf-515
 N  -3.78246746  -1.11994444   3.68024637
 H  -4.69529323  -1.44431151   3.35858799
 H  -3.06507858  -1.68826631   3.22140166
 H  -3.71508207  -1.24073674   4.68907669
 C  -3.53121036   0.27163729   3.25885594
 H  -4.46295658   0.84648414   3.29566739
 C  -3.04403175   0.21055674   1.81317566
 C  -2.49324069   0.96950421   4.13818591
 H  -1.59809645   0.34146602   4.18466815
 H  -2.19784630   1.90610600   3.66320862
 O  -2.50495665  -0.80546057   1.37486355
 C  -2.99756480   1.26380866   5.55109296
 H  -3.23945487   0.34869903   6.09547993
 H  -3.91005264   1.86455457   5.49773989
 C  -1.99720417   2.01901455   6.37893498
 O  -1.55381685   1.66916913   7.44312953
 O  -1.64172447   3.19252888   5.80007613
 N  -3.19881962   1.33266983   1.08025830
 H  -3.53258362   2.16817649   1.52454684
 C  -2.70691441   1.44697447  -0.28649068
 H  -2.83467437   0.46511503  -0.74081615
 C  -1.21899848   1.78726377  -0.26701085
 C  -3.49630655   2.49690491  -1.06608045
 H  -2.98264425   2.67268097  -2.01005587
 H  -3.46027885   3.43119647  -0.50866299
 O  -0.76654645   2.84318151  -0.70673389
 C  -4.91661703   2.08911629  -1.31514915
 C  -6.02435677   2.55372671  -0.66541494
 H  -6.10723555   3.30695779   0.10329511
 C  -5.38475490   1.10486560  -2.26132119
 C  -6.77775680   1.00336856  -2.10600185
 C  -4.74163302   0.30663388  -3.21745328
 H  -3.66922591   0.37414918  -3.37736328
 N  -7.14630463   1.89735270  -1.12794134
 H  -8.08200094   2.05754099  -0.80922430
 C  -6.89574226  -0.66427895  -3.79020178
 H  -7.46227847  -1.36245724  -4.39460658
 C  -7.55643220   0.11920576  -2.85740977
 H  -8.62914392   0.05548558  -2.71307725
 C  -5.50376454  -0.56786874  -3.97155901
 H  -5.02306816  -1.19273554  -4.71463915
 N  -0.42721826   0.86923504   0.33420044
 H  -0.79055015  -0.06274615   0.48222401
 C   0.99422320   1.00021893   0.34369066
 H   1.23220769   2.04290902   0.56473833
 C   1.58617778   0.62442440  -1.01655233
 C   1.63292151   0.10615032   1.50324850
 H   2.74889777   0.35491685   1.40350063
 O   0.99066369  -0.03107248  -1.85669543
 C   1.20314609   0.81630619   2.84085025
 H   1.62372624   1.82235164   2.87413437
 H   1.55958365   0.24735781   3.70342040
 H   0.10966154   0.88777408   2.89915791
 O   1.35037168  -1.11800601   1.44005122
 N   2.86044674   1.07282381  -1.19437349
 H   3.28456786   1.62638223  -0.47038526
 C   3.51477673   1.03094213  -2.48871417
 H   3.06594119   0.21665949  -3.05684041
 C   4.98882072   0.71981132  -2.33498135
 C   3.36640156   2.35441984  -3.26221717
 H   4.12426009   2.38600121  -4.04742624
 H   3.58635143   3.17472089  -2.58077267
 O   5.64260307   0.08447435  -3.11856829
 C   1.97087307   2.51766814  -3.87574210
 H   1.98166789   2.11268677  -4.89194470
 H   1.22982019   1.93269925  -3.33022185
 C   1.52532223   3.96863278  -3.91024361
 H   2.34684688   4.59785133  -4.26245445
 H   0.68271526   4.10502166  -4.59659659
 N   1.14522731   4.37925926  -2.54252145
 H   0.65645292   3.67892576  -1.99356291
 N   1.03508561   6.65753793  -3.07582047
 H   1.20380470   7.56016450  -2.65414875
 H   1.60960323   6.46134313  -3.88230490
 N   0.32842207   5.89276877  -0.99424825
 H  -0.02948653   5.09836883  -0.47718985
 H  -0.21197923   6.73891394  -0.90364705
 C   0.83111781   5.63107228  -2.21772434
 O   5.51633668   1.29519750  -1.22852149
 H   6.45540725   1.07106781  -1.22101352
 H  -1.01780587   3.60841679   6.40865108
