21
conf-549
 N  -10.78167010   5.43116753   2.32516254
 H  -11.06805071   5.17563990   1.38036414
 H  -11.21547100   4.76625728   2.96716736
 H  -11.12610438   6.36207343   2.54839725
 C  -9.31978817   5.34891131   2.47337395
 H  -8.84444607   5.82057877   1.60262275
 C  -8.92795592   3.87053128   2.49136421
 C  -8.81341203   6.07984858   3.73191760
 H  -7.73959353   5.87091887   3.78617582
 O  -9.75330135   2.98197435   2.66374063
 C  -8.98492550   7.59153005   3.61529127
 H  -10.03930270   7.87561332   3.62048834
 H  -8.50776333   8.09069313   4.46174909
 H  -8.53581836   7.98030685   2.69777977
 C  -9.47225011   5.55464182   5.00235574
 H  -10.52663524   5.84324384   5.03191282
 H  -9.41773192   4.46553562   5.06613152
 H  -8.98836793   5.97815970   5.88540659
 N  -7.60529512   3.61766436   2.35450841
 H  -6.94756600   4.35906905   2.17177118
 C  -7.08443064   2.26180482   2.33408326
 H  -7.64545041   1.69007825   3.07544908
 C  -5.61648856   2.34308860   2.73779721
 C  -7.28420667   1.56875568   0.96053558
 H  -8.36404646   1.60796074   0.79451940
 O  -4.88389218   3.23749993   2.34412936
 C  -6.86557902   0.09559989   0.97368004
 H  -5.80024901   0.01904124   1.20821075
 H  -6.97521277  -0.27382418  -0.05235035
 C  -6.57728820   2.29614878  -0.18253294
 H  -5.49450203   2.21700940  -0.05799414
 H  -6.83728198   3.35508291  -0.20905892
 H  -6.84854157   1.84848130  -1.13997868
 C  -7.68820253  -0.79165759   1.89464815
 H  -7.37519212  -1.83325972   1.80083370
 H  -7.57513395  -0.51459075   2.94837761
 H  -8.75201089  -0.73541763   1.64714018
 N  -5.17644915   1.35293696   3.57166916
 H  -5.74636511   0.52433330   3.63339899
 C  -3.73905599   1.13468558   3.70889630
 H  -3.27036383   2.11774753   3.74485755
 C  -3.23930987   0.36329727   2.49735244
 C  -3.41711605   0.34158842   4.98767449
 H  -3.89422152  -0.63567802   4.90248433
 H  -3.85851902   0.86657999   5.83459176
 O  -3.74099670  -0.72886879   2.19176622
 C  -1.92860104   0.18684060   5.18050999
 C  -1.23532066  -0.83117705   4.51036715
 H  -1.79061369  -1.53427705   3.89500925
 C  -1.20455718   1.08378163   5.96851557
 H  -1.73043042   1.85950003   6.51238113
 C   0.14956298  -0.91315357   4.60696591
 H   0.68278993  -1.68751904   4.07427894
 C   0.18238182   0.99183977   6.07189901
 H   0.71676793   1.70660548   6.68811416
 C   0.86442762   0.00080560   5.37240480
 H   1.94352336  -0.08369075   5.41734405
 N  -2.20971291   0.91691338   1.82251392
 H  -1.84614809   1.81851877   2.09197855
 C  -1.53727605   0.19200278   0.75557604
 H  -1.66548316  -0.87435948   0.96237790
 C  -0.07296711   0.57338580   0.82991772
 C  -2.13749590   0.51550000  -0.61105107
 H  -2.16314944   1.60136496  -0.72085517
 H  -3.17594468   0.16879685  -0.59590219
 O   0.28001380   1.74756772   0.76682804
 C  -1.40413619  -0.08189031  -1.81863036
 H  -0.36870747   0.28532759  -1.78956939
 C  -1.39869323  -1.60543141  -1.79588209
 H  -2.42505754  -1.98168649  -1.80369408
 H  -0.89790978  -2.01522895  -0.91545667
 H  -0.89270260  -2.00467203  -2.67999914
 C  -2.04714075   0.42515006  -3.10795174
 H  -3.07956441   0.07675583  -3.17349184
 H  -1.50764790   0.06473048  -3.98981156
 H  -2.05310979   1.51726518  -3.14187279
 N   0.78365834  -0.46532255   0.97870013
 H   0.42233454  -1.40326735   0.94936927
 C   2.22736907  -0.29322371   0.97245291
 H   2.37833497   0.78794125   1.01031689
 C   2.76669805  -0.84990224  -0.34708801
 C   2.85619657  -0.95738798   2.18671425
 H   2.78853698  -2.04222184   2.07811465
 H   2.25850183  -0.66707211   3.05570787
 O   3.45289143  -1.85951839  -0.41131439
 C   4.29772340  -0.53949681   2.45380453
 H   4.97403795  -0.89703312   1.68204628
 H   4.35658390   0.54877799   2.51772197
 C   4.70481158  -1.13036066   3.84059088
 O   5.61803416  -1.96370907   3.86946344
 O   4.03054260  -0.66412891   4.77572599
 N   2.34106822  -0.19198573  -1.45641999
 H   1.98631283   0.75489252  -1.39701128
 C   2.82430797  -0.60592152  -2.74931437
 H   2.94909046  -1.68796225  -2.69928306
 C   4.18264528   0.02931874  -3.06685014
 C   1.81611179  -0.26551742  -3.85676188
 H   2.13679326  -0.68663270  -4.81212037
 H   0.85021114  -0.70622709  -3.58429552
 O   4.63286708   1.00083686  -2.48801786
 C   1.62783375   1.22791134  -3.96761976
 N   1.99239037   1.79429621  -5.13568271
 H   1.97527944   2.79637930  -5.14567278
 H   2.60265418   1.29674512  -5.76723041
 O   1.15767884   1.87315358  -3.03869951
 N   4.83567882  -0.58696578  -4.09764122
 H   4.32726965  -1.27700125  -4.61990706
 C   5.97441971   0.02157796  -4.75425321
 H   6.50163794   0.60291629  -4.00268631
 C   5.52885757   0.95999380  -5.90612739
 C   6.89212203  -1.06835484  -5.33369374
 H   7.05102267  -1.81351960  -4.55714787
 H   6.33639376  -1.52338232  -6.15753469
 O   4.61266794   0.68314903  -6.70429333
 C   8.20363442  -0.52282900  -5.82919291
 C   8.34753421  -0.18005650  -7.17403926
 H   7.49561140  -0.30774173  -7.83687261
 C   9.28270664  -0.30514765  -4.97526224
 H   9.19647105  -0.56898653  -3.92690997
 C   9.53506593   0.36221874  -7.66009131
 H   9.65000180   0.62687776  -8.70337521
 C   10.47892069   0.23240864  -5.44678387
 H   11.30751825   0.38603134  -4.76383046
 O   11.74772657   1.08435411  -7.32588896
 H   12.41083615   1.16928308  -6.63576883
 C   10.60439190   0.56352037  -6.79300517
 N   6.30659328   2.06889904  -6.02768821
 H   7.21716803   2.08741663  -5.59407333
 C   6.10977410   2.92181096  -7.18184033
 H   5.88964845   2.27728760  -8.04349424
 C   7.41142098   3.61276230  -7.45396479
 C   4.90512896   3.85808548  -7.01924296
 H   4.83129381   4.46815918  -7.91657613
 H   4.04074318   3.18336046  -7.00383017
 O   8.41365971   3.46014593  -6.80456689
 C   4.93254753   4.70324794  -5.76408590
 H   5.02099082   4.06879399  -4.87923588
 H   5.79901923   5.36410129  -5.77175616
 C   3.67886087   5.55677946  -5.61060658
 H   2.79774537   4.91659360  -5.54519468
 H   3.71553329   6.12902911  -4.67873930
 N   3.41438455   6.47701185  -6.73265622
 H   2.93179952   6.06349201  -7.51715912
 N   5.19694131   7.87175900  -6.18363642
 H   5.64602771   8.76495513  -6.30695528
 H   5.13368287   7.54187361  -5.23440933
 N   4.11035293   8.09773942  -8.25102704
 H   4.54874228   8.99971197  -8.36547099
 H   3.23166108   7.98970864  -8.73994086
 C   4.23068434   7.49270059  -7.04324782
 O   7.34336478   4.41943488  -8.52685525
 H   8.22877300   4.79228883  -8.63518491
