21
conf-578
 N  -11.56382775   4.93520494   5.88483859
 H  -12.30254763   4.56362397   5.28693224
 H  -11.44589877   4.29619540   6.67332474
 H  -11.85011331   5.84061712   6.25219845
 C  -10.29133072   5.02922763   5.15406528
 H  -10.48427848   5.45953407   4.16439310
 C  -9.71428672   3.62629550   4.95811649
 C  -9.25898922   5.92796339   5.86858829
 H  -8.30022784   5.73583840   5.36151401
 O  -9.99243520   2.69137568   5.70249336
 C  -9.58097202   7.40923326   5.71627140
 H  -10.53701108   7.65891828   6.18100098
 H  -8.80871433   8.01013186   6.20331566
 H  -9.62802003   7.70687263   4.66642833
 C  -9.09523761   5.56228924   7.33999517
 H  -9.97460499   5.86701844   7.91185806
 H  -8.95792289   4.48691262   7.47629005
 H  -8.22989107   6.08153123   7.76340220
 N  -8.85785260   3.51986698   3.90342335
 H  -8.49100723   4.36887439   3.49829619
 C  -7.92552119   2.41715969   3.78191963
 H  -7.85636162   1.91537113   4.75546649
 C  -6.57312563   3.04339968   3.42099810
 C  -8.37385540   1.35196390   2.75292981
 H  -7.56896759   0.60728906   2.73701203
 O  -6.47504045   4.21722927   3.09053048
 C  -8.51693980   1.91732050   1.33882557
 H  -7.62707282   2.50932898   1.09802307
 H  -9.36109611   2.60991623   1.32952335
 C  -9.65591675   0.67053906   3.23032346
 H  -10.49530222   1.36408297   3.18183838
 H  -9.55580250   0.33416135   4.26370357
 H  -9.89505372  -0.19264455   2.60852042
 C  -8.71570660   0.84965557   0.27168493
 H  -8.75233485   1.30290187  -0.72066848
 H  -7.89457738   0.12743763   0.27829297
 H  -9.64603159   0.29754097   0.41772359
 N  -5.51248864   2.20614977   3.47502720
 H  -5.61993087   1.24370954   3.75077825
 C  -4.16860112   2.65299252   3.18616332
 H  -4.24945932   3.50670300   2.51358815
 C  -3.42343041   1.48073794   2.54024875
 C  -3.42610585   3.09201343   4.46083242
 H  -2.41036335   3.38851389   4.18479106
 H  -3.34456872   2.22612206   5.12059124
 O  -3.60413618   0.33195808   2.92321702
 C  -4.12327554   4.22039343   5.17062391
 C  -3.90608047   5.54755249   4.79931300
 H  -3.21397719   5.76300914   3.98940699
 C  -5.01988542   3.95685531   6.20739456
 H  -5.20653222   2.92560397   6.48939190
 C  -4.57115320   6.58849819   5.44405680
 H  -4.38758501   7.61130872   5.13731276
 C  -5.68402725   4.99475171   6.85972029
 H  -6.36195857   4.76867498   7.66460077
 C  -5.46230893   6.31252565   6.47704850
 H  -5.97337641   7.12544692   6.98160302
 N  -2.54012253   1.81959177   1.56484662
 H  -2.25938225   2.78322503   1.45353965
 C  -1.57239377   0.87850994   1.03539179
 H  -1.52274531   0.01602621   1.70227402
 C  -0.22854108   1.60026424   1.00590814
 C  -1.92316222   0.40801563  -0.38056271
 H  -1.07594603  -0.15849679  -0.77314455
 H  -2.02395218   1.29494521  -1.01120433
 O  -0.15068282   2.81362377   0.94013862
 C  -3.19330547  -0.43551102  -0.50850136
 H  -4.02991879   0.14139631  -0.11239579
 C  -3.46318533  -0.70932919  -1.98559455
 H  -2.63228561  -1.26831100  -2.42357103
 H  -3.57781884   0.22419490  -2.54092210
 H  -4.37591605  -1.29439183  -2.11835740
 C  -3.09793219  -1.74509498   0.27014372
 H  -2.26282200  -2.34693507  -0.10099765
 H  -4.01396943  -2.32759678   0.14285902
 H  -2.95660367  -1.57394507   1.33752816
 N   0.87479136   0.78951766   1.02862590
 H   0.71877638  -0.17828277   0.80211121
 C   2.14634242   1.29581329   0.52705026
 H   2.21617193   2.33843388   0.83038967
 C   2.14275114   1.19732597  -1.00539697
 C   3.29518130   0.46664762   1.12050894
 H   3.13786345  -0.58008311   0.84036987
 H   3.21442846   0.53725188   2.20809262
 O   1.52204978   0.33059128  -1.59668048
 C   4.70143273   0.91112799   0.70853927
 H   5.44884087   0.29329917   1.20851639
 H   4.83939426   0.84806623  -0.36627443
 C   4.87940798   2.36724905   1.19791179
 O   4.53988423   3.26863837   0.40083764
 O   5.31000833   2.48169381   2.35191351
 N   2.88944905   2.12997262  -1.64005315
 H   3.52811035   2.69100235  -1.07537158
 C   3.11271007   2.01434435  -3.06445554
 H   2.15522338   1.76674060  -3.52572008
 C   4.14195229   0.91949037  -3.34908164
 C   3.64100469   3.33244022  -3.64156890
 H   4.53691597   3.63129218  -3.09692408
 H   3.92037551   3.19357906  -4.68626420
 O   5.16400503   0.80990518  -2.68917228
 C   2.57721778   4.42036091  -3.60901448
 N   3.03750673   5.66057127  -3.29536421
 H   2.37323938   6.41481515  -3.27887065
 H   4.00469889   5.83658749  -3.10153625
 O   1.41149205   4.19976445  -3.88331290
 N   3.86866889   0.11149448  -4.41619459
 H   3.20429127   0.48227666  -5.07626871
 C   4.98073862  -0.58641377  -5.04939710
 H   5.62889224  -0.94190380  -4.25280772
 C   5.73440777   0.39771230  -5.95387996
 C   4.45209111  -1.77328657  -5.86397400
 H   3.84097996  -2.37237447  -5.18917711
 H   3.79963790  -1.38077866  -6.64710640
 O   5.18468005   1.34411001  -6.49377051
 C   5.55119575  -2.61274553  -6.46003593
 C   5.97288700  -2.40926991  -7.77380320
 H   5.51151569  -1.62523899  -8.36578495
 C   6.19811687  -3.58889471  -5.70687007
 H   5.88918384  -3.75695859  -4.68106204
 C   7.00339299  -3.16736202  -8.32876258
 H   7.32716839  -3.01824066  -9.35294568
 C   7.22499386  -4.35978898  -6.24694185
 H   7.70500997  -5.12183764  -5.64299481
 O   8.61979471  -4.87055082  -8.16093120
 H   8.95412041  -5.52094579  -7.53686942
 C   7.62645670  -4.14807322  -7.56389078
 N   7.04674909   0.11238775  -6.13145923
 H   7.41778855  -0.75079607  -5.77052652
 C   7.83813579   0.87074160  -7.08238365
 H   7.15581919   1.30857820  -7.81733084
 C   8.78143698  -0.03662621  -7.83810447
 C   8.59752987   2.01745855  -6.39856021
 H   7.85425368   2.58688911  -5.83654703
 H   9.30727132   1.61321991  -5.68053542
 O   9.14518520   0.13828213  -8.97295136
 C   9.30136697   2.93779880  -7.38495984
 H   10.08075956   2.40533559  -7.93037697
 H   8.57718098   3.27707100  -8.13379140
 C   9.90102537   4.14767236  -6.69709386
 H   10.28943603   4.86203293  -7.43283389
 H   9.12439521   4.65437943  -6.12053115
 N   10.97321842   3.70819729  -5.77620729
 H   11.56365381   2.97934431  -6.15333215
 N   11.22392980   5.85035645  -4.86476756
 H   11.53935535   6.38438763  -4.07075337
 H   10.31158828   6.08676187  -5.21787626
 N   12.77131244   4.15225461  -4.38778989
 H   13.13544957   4.72659822  -3.64315189
 H   12.86170153   3.15747830  -4.23157434
 C   11.63885152   4.57674594  -4.99854284
 O   9.20539977  -1.07629450  -7.08517742
 H   9.80281985  -1.59867920  -7.63658816
