21
conf-315
 N  -10.68600067  -0.03393283   6.72023142
 H  -11.29903274  -0.47075799   6.03150551
 H  -10.14300360  -0.77611101   7.17051960
 H  -11.23916915   0.44695563   7.42518758
 C  -9.70418739   0.86443026   6.07924514
 H  -10.14890515   1.30572886   5.17625665
 C  -8.51082574  -0.00552869   5.68065143
 C  -9.30389205   2.01958119   7.02453056
 H  -10.26256446   2.46585522   7.31836866
 O  -8.28192321  -1.06850867   6.24564549
 C  -8.60326789   1.51375263   8.28153718
 H  -7.63172352   1.08952202   8.02487479
 H  -8.44451082   2.33110361   8.98839334
 H  -9.18707946   0.73709670   8.77821135
 C  -8.47784904   3.10411749   6.34037973
 H  -7.47754069   2.74088852   6.09597730
 H  -8.95473147   3.45360027   5.41966166
 H  -8.36825520   3.96412226   7.00545675
 N  -7.71377307   0.49191206   4.71326122
 H  -7.89159185   1.37876028   4.26701978
 C  -6.50095747  -0.17559626   4.28563618
 H  -6.03133954  -0.60432884   5.17315549
 C  -5.62139175   0.92087943   3.68622564
 C  -6.77877715  -1.34221650   3.30343630
 H  -7.42920141  -2.01615607   3.86705111
 O  -6.11443831   1.89187645   3.13008431
 C  -5.50800790  -2.11021482   2.92978994
 H  -4.81849911  -1.43769783   2.41541891
 H  -5.79760671  -2.86998461   2.19416188
 C  -7.50561422  -0.88769512   2.03783979
 H  -6.87782320  -0.19925135   1.46967448
 H  -8.43902753  -0.37552003   2.27437510
 H  -7.73863390  -1.74832954   1.40789971
 C  -4.81810268  -2.80368960   4.09302874
 H  -3.93789312  -3.34991586   3.74544505
 H  -4.48104494  -2.09366710   4.85752476
 H  -5.48777964  -3.51968434   4.57761876
 N  -4.28098336   0.74506368   3.81900147
 H  -3.93757707  -0.15583825   4.09774917
 C  -3.34733009   1.56939129   3.08321980
 H  -3.88486086   2.48000723   2.81864937
 C  -2.92518738   0.86482532   1.79980426
 C  -2.12419536   1.93548204   3.94159512
 H  -2.45954760   2.63317247   4.71501745
 H  -1.40409925   2.46614842   3.30939600
 O  -2.80176478  -0.35332196   1.72217011
 C  -1.47426748   0.73746440   4.59065429
 C  -1.88339405   0.32183272   5.85823675
 H  -2.67754067   0.86423559   6.36275387
 C  -0.46307865   0.01869281   3.95186903
 H  -0.14451762   0.31493502   2.96468433
 C  -1.29917270  -0.78093237   6.47940610
 H  -1.63563739  -1.07886645   7.46562013
 C   0.12941780  -1.08354756   4.57270804
 H   0.93029180  -1.61647944   4.07623805
 C  -0.28509983  -1.48613892   5.83942537
 H   0.17813452  -2.33926859   6.32457717
 N  -2.66902799   1.69652940   0.75592555
 H  -2.64032656   2.68406536   0.93693812
 C  -1.96409847   1.20986263  -0.41999884
 H  -2.24840626   0.16005719  -0.51405606
 C  -0.46410920   1.32027263  -0.17631801
 C  -2.37726208   1.97475950  -1.66332262
 H  -2.23294886   3.04323557  -1.48562939
 H  -3.44870367   1.80812081  -1.79917523
 O   0.18018994   2.32975343  -0.42297999
 C  -1.63634291   1.58460345  -2.95195070
 H  -0.62557548   1.99452427  -2.88730922
 C  -1.52224859   0.07274107  -3.12772588
 H  -2.51197419  -0.39432881  -3.08531937
 H  -0.88607242  -0.38587608  -2.36706106
 H  -1.08105472  -0.16058126  -4.10007358
 C  -2.34372959   2.22630214  -4.14342056
 H  -3.34877535   1.81264901  -4.25355589
 H  -1.79640778   2.04273052  -5.07068716
 H  -2.43087646   3.30724335  -4.01235183
 N   0.09480663   0.22545953   0.40847767
 H  -0.45132045  -0.62170528   0.39135855
 C   1.54199287   0.03995847   0.33785246
 H   1.99773906   0.99968762   0.59140308
 C   1.93140615  -0.36667308  -1.08015000
 C   1.94441561  -1.04909627   1.33318864
 H   1.54398601  -1.99614184   0.97187774
 H   1.43374114  -0.82446260   2.27950192
 O   1.33379024  -1.26312510  -1.66761637
 C   3.43234410  -1.16369767   1.58883008
 H   4.00054589  -1.36730745   0.68475223
 H   3.82933838  -0.24137462   2.02141686
 C   3.77270314  -2.27566451   2.63814539
 O   4.94633587  -2.65126023   2.60242062
 O   2.84771411  -2.58656556   3.39470036
 N   2.97458371   0.31392372  -1.63581663
 H   3.53284379   0.85989161  -0.99828750
 C   3.72599969  -0.33009761  -2.70467174
 H   3.01553024  -0.95765546  -3.22890710
 C   4.82842601  -1.20740028  -2.08980760
 C   4.32989069   0.70218452  -3.65844329
 H   3.52768551   1.36574841  -3.97639168
 H   5.08849597   1.29167838  -3.14235203
 O   5.33732058  -0.94299236  -0.99598641
 C   4.97301848   0.06906061  -4.86529574
 N   4.20091083  -0.80817748  -5.56821985
 H   4.58098045  -1.14920450  -6.43404478
 H   3.20088948  -0.76663074  -5.48023590
 O   6.14503950   0.26370055  -5.16841430
 N   5.22076340  -2.26638349  -2.82353356
 H   4.89511702  -2.42576632  -3.76489792
 C   6.31296112  -3.08859667  -2.35495809
 H   7.03712034  -2.44411830  -1.83956250
 C   6.95818882  -3.70252525  -3.59110922
 C   5.83070997  -4.14893576  -1.34879921
 H   5.10522641  -3.64598540  -0.70221387
 H   5.31448218  -4.95039885  -1.87867828
 O   6.33662889  -3.82117648  -4.63483577
 C   6.95846977  -4.64886751  -0.49612466
 C   7.72244436  -5.75876734  -0.83979200
 H   7.47751242  -6.31255263  -1.74216269
 C   7.31319847  -3.93290423   0.64905841
 H   6.72171165  -3.07509529   0.93858951
 C   8.83285212  -6.13474459  -0.08832317
 H   9.43963288  -6.97872903  -0.38657576
 C   8.40373525  -4.31195786   1.42801776
 H   8.65030676  -3.74243655   2.31802219
 O   10.26068566  -5.83203741   1.76040261
 H   10.38416374  -5.25486799   2.51831032
 C   9.16933008  -5.41329612   1.05297745
 N   8.24836918  -4.08435162  -3.45537748
 H   8.69068179  -4.09369080  -2.54692361
 C   9.03828168  -4.43755732  -4.61581436
 H   8.33359824  -4.72907511  -5.39843413
 C   9.91472739  -5.62048122  -4.28522472
 C   9.89146593  -3.27138286  -5.17035675
 H   10.76684423  -3.10875576  -4.53701125
 H   10.25710657  -3.58552393  -6.14655969
 O   10.10414386  -6.06829893  -3.18182284
 C   9.07361220  -1.98833239  -5.27919425
 H   8.10270104  -2.22340598  -5.70613197
 H   8.90191664  -1.59373222  -4.28108689
 C   9.71229288  -0.87902715  -6.10309104
 H   10.77005090  -0.74669043  -5.85376550
 H   9.66413880  -1.13519880  -7.16322324
 N   8.99413741   0.40030204  -5.95305048
 H   8.04168954   0.37976970  -6.30720751
 N   10.09972511   0.96519971  -3.96078682
 H   10.45864394   1.76656283  -3.46027724
 H   10.78916506   0.26378299  -4.18662623
 N   8.34930563   2.28546062  -4.75558081
 H   8.25288386   2.65548455  -3.82063460
 H   7.48414577   2.27862273  -5.28947271
 C   9.14318033   1.20161009  -4.88985037
 O   10.48956203  -6.12495127  -5.39298995
 H   11.03279240  -6.86554339  -5.09822144
