21
conf-538
 N  -10.86430747   1.70430263   6.74813506
 H  -11.49403317   0.94748784   6.47319336
 H  -10.27605326   1.37805513   7.51979849
 H  -11.42540786   2.48845157   7.08320437
 C  -9.97411515   2.10092693   5.63257123
 H  -10.56725166   2.21292928   4.71810790
 C  -8.95940992   0.99173187   5.41779961
 C  -9.25873241   3.43442576   5.91722393
 H  -8.87291325   3.35661188   6.93799043
 O  -8.31886185   0.51748228   6.34747136
 C  -8.06890987   3.66693701   4.98522466
 H  -8.38142872   3.63897462   3.93422589
 H  -7.62868993   4.64772385   5.17862382
 H  -7.28882937   2.91857777   5.13257335
 C  -10.22905224   4.60924007   5.82949078
 H  -10.56957152   4.72910494   4.79829522
 H  -11.11068683   4.48309518   6.45909323
 H  -9.73341021   5.53313939   6.13461450
 N  -8.81854601   0.57512427   4.12575736
 H  -9.11896101   1.21864270   3.41037847
 C  -7.67104362  -0.24861398   3.75820825
 H  -7.41214131  -0.84990644   4.62944700
 C  -6.54863119   0.71362788   3.42939553
 C  -7.96019782  -1.17502909   2.56646750
 H  -8.20355166  -0.52749194   1.71706181
 O  -6.61914623   1.45908906   2.45262675
 C  -9.16501850  -2.07424377   2.85032184
 H  -9.96926801  -1.48362363   3.28676194
 H  -8.86975230  -2.80383971   3.61222238
 C  -6.73127933  -2.01961066   2.22989183
 H  -6.48216893  -2.65958803   3.08138415
 H  -5.86256982  -1.40285200   2.00328428
 H  -6.91663297  -2.66129222   1.36634191
 C  -9.69604380  -2.79125246   1.61706692
 H  -10.55626776  -3.41366051   1.87163404
 H  -10.01692887  -2.07265932   0.85770751
 H  -8.94275209  -3.43658085   1.16284959
 N  -5.51194374   0.74893275   4.29560536
 H  -5.42207060  -0.03777800   4.91483499
 C  -4.26876699   1.40035348   3.88666452
 H  -4.48841444   2.44844350   3.69519199
 C  -3.75755109   0.75176281   2.58207239
 C  -3.23232110   1.25163092   5.00295967
 H  -2.99709890   0.18891603   5.08260468
 H  -3.70860149   1.56915103   5.92994747
 O  -3.78925272  -0.49044568   2.40857205
 C  -1.97377542   2.03182838   4.74934757
 C  -0.77826900   1.36618320   4.48458207
 H  -0.76963266   0.28520590   4.43760676
 C  -1.98789482   3.42437043   4.76641732
 H  -2.92940160   3.93403857   4.95168902
 C   0.40013718   2.08878138   4.31008652
 H   1.32734215   1.55565675   4.15116580
 C  -0.81620054   4.14903320   4.56418543
 H  -0.84276998   5.23187314   4.58933426
 C   0.38606649   3.48022346   4.34444892
 H   1.30080438   4.04432887   4.20075580
 N  -3.26556342   1.65435071   1.68355699
 H  -2.98741753   2.56228923   2.01157652
 C  -2.73403766   1.24662595   0.40354595
 H  -2.81209405   0.15933223   0.36362706
 C  -1.26123073   1.63441084   0.34099661
 C  -3.48825644   1.85395694  -0.77407821
 H  -3.08801182   1.41697522  -1.69376490
 H  -3.28210791   2.92694651  -0.81756750
 O  -0.82548491   2.62856859   0.90363834
 C  -5.00354828   1.63302350  -0.73959072
 H  -5.39951623   2.17863050   0.11777074
 C  -5.63554589   2.21169800  -2.00225709
 H  -5.26131411   1.69032730  -2.88678663
 H  -5.40266180   3.27398071  -2.10757256
 H  -6.72239103   2.10451365  -1.97787033
 C  -5.36432991   0.15926778  -0.58088956
 H  -4.98952362  -0.41872364  -1.43054307
 H  -6.45166992   0.03971641  -0.53719160
 H  -4.94864622  -0.27110820   0.32959121
 N  -0.48814199   0.83442158  -0.42972532
 H  -0.85476486   0.05075551  -0.94839609
 C   0.94466334   0.99608261  -0.49201490
 H   1.17492183   2.03675514  -0.73366257
 C   1.42280965   0.07688296  -1.62054594
 C   1.61933973   0.68082257   0.85398825
 H   1.33462213   1.48009341   1.54115666
 H   2.70420562   0.71398843   0.73061778
 O   0.70486701  -0.78345343  -2.09906562
 C   1.22161714  -0.67270076   1.44088160
 H   0.14815845  -0.71555510   1.64201430
 H   1.49487312  -1.48221123   0.76442606
 C   2.00011322  -0.84945270   2.76941036
 O   3.20266592  -1.11614926   2.65397426
 O   1.33768041  -0.68014311   3.81733755
 N   2.69858341   0.26453608  -2.02058278
 H   3.30646087   0.95819693  -1.61047632
 C   3.29350926  -0.57597837  -3.04130555
 H   2.98526990  -1.60132557  -2.84378200
 C   4.80903140  -0.41880152  -2.88003152
 C   2.78769011  -0.17930986  -4.43256297
 H   1.69691546  -0.18379086  -4.39105523
 H   3.09756816   0.83839451  -4.67321335
 O   5.28378125   0.58052079  -2.36442833
 C   3.21524005  -1.04821201  -5.59652819
 N   3.38976327  -2.37855814  -5.32918068
 H   3.56087573  -2.97713030  -6.12154476
 H   2.97359314  -2.78441412  -4.51212955
 O   3.37632367  -0.57807030  -6.70656213
 N   5.56594529  -1.45298102  -3.32452412
 H   5.15856341  -2.08028227  -4.01585499
 C   7.00256953  -1.32052618  -3.35969483
 H   7.27569789  -0.65596779  -2.53820812
 C   7.45238641  -0.66026299  -4.66455427
 C   7.68133070  -2.68741393  -3.15781618
 H   8.75207204  -2.56758666  -3.34792341
 H   7.55588819  -2.97319016  -2.11132186
 O   6.78297658  -0.63737740  -5.68276966
 C   7.08905776  -3.74757599  -4.04461502
 C   6.23573305  -4.71958318  -3.52398335
 H   6.03721321  -4.73250808  -2.46057887
 C   7.33267776  -3.75811051  -5.41737767
 H   8.00185823  -3.02001140  -5.83507688
 C   5.62234708  -5.65940663  -4.34781773
 H   4.95954476  -6.41287043  -3.94391355
 C   6.73226635  -4.69385827  -6.25676974
 H   6.93842558  -4.67338157  -7.31990944
 O   5.25394769  -6.59787125  -6.47987890
 H   5.51996799  -6.47728375  -7.39510196
 C   5.87458856  -5.64800098  -5.71535164
 N   8.69435618  -0.10252279  -4.60200199
 H   9.25751393  -0.27561831  -3.79111117
 C   9.33170330   0.41328528  -5.79176619
 H   8.53172365   0.57741663  -6.52029851
 C   10.25736290  -0.59522680  -6.45046229
 C   10.05515900   1.73345594  -5.53516093
 H   10.76044405   1.60653946  -4.71121701
 H   10.64240511   1.98217414  -6.42074117
 O   11.12489781  -0.30904416  -7.23301584
 C   9.08231588   2.86102915  -5.22501072
 H   8.39638367   2.98400593  -6.06703123
 H   8.47928097   2.61064105  -4.35308817
 C   9.79360508   4.17837033  -4.97731909
 H   10.50193397   4.07080340  -4.14640997
 H   10.36999979   4.45350444  -5.86420500
 N   8.80515755   5.23463453  -4.69013375
 H   7.99234349   4.92245429  -4.18085006
 N   10.41432256   6.92499428  -4.73889535
 H   10.72730252   7.78641517  -4.31994199
 H   11.12276929   6.21384777  -4.82912515
 N   8.23425557   7.37957322  -3.99445807
 H   8.42177190   8.35522630  -4.17555137
 H   7.26957252   7.12424676  -4.16486941
 C   9.16176424   6.50738845  -4.46676020
 O   9.97174790  -1.87302270  -6.11909789
 H   10.60056251  -2.41993442  -6.60996295
