21
conf-217
 N  -11.25975895   4.60663630   3.97002274
 H  -11.82215301   4.14062159   3.25851056
 H  -11.24619933   3.99882534   4.78902430
 H  -11.69948258   5.48588433   4.23302193
 C  -9.88366793   4.81845785   3.49171357
 H  -9.91815788   5.26014127   2.48514650
 C  -9.19615641   3.45640968   3.38073432
 C  -9.08648742   5.78402599   4.38921903
 H  -8.06944096   5.79017167   3.98381338
 O  -9.69289175   2.43759156   3.83955099
 C  -9.63064220   7.20679138   4.30920913
 H  -10.62353612   7.27919422   4.75810680
 H  -8.97644970   7.89245188   4.85295126
 H  -9.70174130   7.55729039   3.27622003
 C  -9.02828016   5.30679575   5.83560575
 H  -10.01104130   5.39760251   6.30683309
 H  -8.71241247   4.26335153   5.90836463
 H  -8.32955793   5.91891153   6.41072950
 N  -7.98240068   3.46859128   2.77662791
 H  -7.65763770   4.29028247   2.29261337
 C  -7.23628757   2.24043056   2.54294145
 H  -7.26258287   1.66606657   3.47222310
 C  -5.81469899   2.68377774   2.23808600
 C  -7.83805355   1.34149420   1.44021521
 H  -8.70782371   0.87824961   1.91529103
 O  -5.52625460   3.27864136   1.20685020
 C  -6.88950077   0.21603720   1.01251361
 H  -6.02403743   0.64083664   0.48735537
 H  -7.43193775  -0.37562624   0.26614102
 C  -8.31818155   2.09925228   0.20443860
 H  -7.49107348   2.63534454  -0.25914160
 H  -9.10435449   2.81469057   0.45229813
 H  -8.72920767   1.39571221  -0.52079380
 C  -6.43100399  -0.71383450   2.12361297
 H  -5.96231303  -1.61067876   1.71069299
 H  -5.69363844  -0.24402164   2.77191710
 H  -7.27100165  -1.04243731   2.73921723
 N  -4.90396992   2.43393106   3.22097511
 H  -5.15674217   1.75912034   3.92242538
 C  -3.47782838   2.52780738   2.91139257
 H  -3.35112609   3.41510656   2.29385543
 C  -3.03123181   1.28564796   2.11034983
 C  -2.65171754   2.64373120   4.20143236
 H  -2.81616612   1.73353231   4.77915852
 H  -3.04479374   3.48242023   4.77409314
 O  -3.14787214   0.13668292   2.58722649
 C  -1.17966649   2.84596148   3.93337743
 C  -0.35366586   1.75908674   3.63188653
 H  -0.79812600   0.76759723   3.56044598
 C  -0.62117523   4.12311252   3.95465111
 H  -1.24912192   4.97505184   4.18762490
 C   1.01521486   1.95026768   3.41138973
 H   1.65859119   1.10295274   3.21298655
 C   0.73359419   4.31837613   3.70042780
 H   1.13825001   5.32494459   3.72563689
 C   1.55945128   3.23300553   3.43641256
 H   2.61565621   3.36858392   3.25184114
 N  -2.48251267   1.58513331   0.89602408
 H  -2.22102237   2.54280938   0.72842237
 C  -1.73037815   0.63484059   0.10221716
 H  -1.74382134  -0.31937309   0.63126362
 C  -0.29558293   1.15224485   0.01908099
 C  -2.32168829   0.47961725  -1.29110695
 H  -1.75016860  -0.28750740  -1.82265592
 H  -2.17898086   1.41382842  -1.84084823
 O  -0.03636340   2.33574656   0.14083772
 C  -3.80736898   0.11098046  -1.29259664
 H  -4.35917794   0.94395470  -0.83343044
 C  -4.30398969  -0.06538037  -2.72120748
 H  -3.77060838  -0.88596877  -3.20701834
 H  -4.14603112   0.83972393  -3.31284891
 H  -5.37103049  -0.29904804  -2.74226442
 C  -4.06727091  -1.14184785  -0.47144208
 H  -3.51399152  -1.98984965  -0.88325012
 H  -5.13055942  -1.39837574  -0.47625005
 H  -3.77007127  -1.01185478   0.56721658
 N   0.64944936   0.19650438  -0.20579845
 H   0.35866764  -0.71192040  -0.52576226
 C   2.05705711   0.52755497  -0.31349188
 H   2.17370627   1.51419405   0.11646453
 C   2.47591709   0.56267010  -1.79610063
 C   2.92525367  -0.50196318   0.42931598
 H   2.89716131  -1.43441068  -0.14671849
 H   2.46694213  -0.68888707   1.40185026
 O   2.07106534  -0.29463069  -2.62417404
 C   4.36498646  -0.03903358   0.64309286
 H   4.87764349  -0.69323062   1.35121617
 H   4.92470194  -0.01921090  -0.29035208
 C   4.29178382   1.38540716   1.24554652
 O   4.46543156   2.32525490   0.45432417
 O   4.03816728   1.43331119   2.45925279
 N   3.38223466   1.52984436  -2.08494157
 H   3.80693969   2.02404517  -1.30393089
 C   4.00012023   1.57391851  -3.40003315
 H   3.43103849   0.92711686  -4.06033675
 C   5.37958147   0.93160809  -3.34686317
 C   3.96408719   2.95462178  -3.99324048
 H   4.40702253   3.70407827  -3.33982830
 H   4.53339154   2.97429511  -4.92508323
 O   6.41353571   1.53691014  -3.62771358
 C   2.55212593   3.41421586  -4.33929366
 N   1.56425202   2.48049863  -4.41465721
 H   0.64737830   2.84323524  -4.59701754
 H   1.63475786   1.52188503  -4.12040801
 O   2.34435737   4.59086932  -4.58792966
 N   5.38475614  -0.35714831  -2.92768680
 H   4.50419248  -0.85956281  -2.88989192
 C   6.63121938  -1.10348330  -2.82027344
 H   7.37707253  -0.37828914  -2.47761443
 C   7.00723439  -1.62362812  -4.20990871
 C   6.50569972  -2.23603747  -1.80214897
 H   5.95235675  -1.84398533  -0.94051383
 H   5.91576348  -3.04109787  -2.24385422
 O   6.69629418  -2.73735334  -4.61649748
 C   7.84252554  -2.72984776  -1.31931776
 C   8.64363989  -3.56868987  -2.09951118
 H   8.28075529  -3.89772023  -3.06612758
 C   8.34007060  -2.31833126  -0.08298006
 H   7.73784376  -1.67052638   0.53943577
 C   9.90461880  -3.97413787  -1.66560246
 H   10.52397787  -4.61196447  -2.28344692
 C   9.59428755  -2.72134037   0.36898455
 H   9.95505535  -2.38802798   1.33619491
 O   11.61843445  -3.98053872  -0.04948235
 H   11.82601922  -3.62069879   0.81642368
 C   10.37797150  -3.55059693  -0.42800050
 N   7.66071718  -0.72800611  -4.98139481
 H   7.73820385   0.22966605  -4.66270946
 C   8.04354055  -1.07301178  -6.32992434
 H   7.25642423  -1.71154440  -6.75104676
 C   9.30059427  -1.93142244  -6.32147220
 C   8.20940409   0.17651547  -7.19585253
 H   8.98460753   0.80831776  -6.75989901
 H   8.56839974  -0.13107927  -8.17839665
 O   9.91451954  -2.29194537  -5.35208650
 C   6.90570348   0.94846796  -7.34242248
 H   6.14446131   0.29331900  -7.76522604
 H   6.53743655   1.25987857  -6.36650047
 C   7.04748771   2.17720197  -8.22265702
 H   7.77136580   2.86311937  -7.77745786
 H   7.43697526   1.90859603  -9.21039148
 N   5.80052030   2.95104066  -8.37742025
 H   5.50512172   3.43210004  -7.53756210
 N   4.89161814   1.42299832  -9.90426200
 H   4.26541120   1.28753894  -10.68211843
 H   5.80463117   1.00909613  -9.99459971
 N   3.60414557   3.19617551  -9.05747141
 H   2.90535350   2.99485122  -9.75759450
 H   3.65485639   4.16570350  -8.77274518
 C   4.77729267   2.52142963  -9.13654697
 O   9.65128049  -2.27570269  -7.58137641
 H   10.43562088  -2.83041800  -7.49624803
