21
conf-102
 N  -10.51398453   0.46530325   4.94289800
 H  -10.59902154   0.61552914   3.93541930
 H  -10.51385153  -0.54135191   5.12468889
 H  -11.32810907   0.87624226   5.40145656
 C  -9.24637853   1.02520223   5.46717432
 H  -9.12905377   2.05272062   5.10383052
 C  -8.11321068   0.16674414   4.92332308
 C  -9.21664133   1.04777328   7.00370949
 H  -9.45327098   0.02943533   7.32403198
 O  -8.13396100  -1.06053380   5.03195072
 C  -7.84220605   1.41833920   7.56028392
 H  -7.53521074   2.40633308   7.20106324
 H  -7.87982483   1.45210346   8.65146550
 H  -7.07352145   0.69494857   7.27742926
 C  -10.26130833   2.00697777   7.56971845
 H  -10.03395925   3.02900406   7.25614169
 H  -11.27880126   1.77639817   7.25243788
 H  -10.24449580   1.97528929   8.66117644
 N  -7.08391708   0.82344201   4.34736646
 H  -7.05130267   1.83193355   4.30508533
 C  -5.90171125   0.11551832   3.89498016
 H  -5.70313863  -0.68190517   4.61649005
 C  -4.75639787   1.12182607   3.89004510
 C  -6.11743162  -0.56661593   2.51570408
 H  -7.04555943  -1.12902824   2.65534030
 O  -4.93395321   2.29969380   3.62501213
 C  -5.02460600  -1.57710346   2.15870089
 H  -4.06619487  -1.06502217   1.99230897
 H  -5.29998334  -2.00021241   1.18576981
 C  -6.30178213   0.42239390   1.36403294
 H  -5.34108838   0.85700644   1.07727623
 H  -6.97864161   1.23377161   1.63264920
 H  -6.71051196  -0.09428904   0.49415035
 C  -4.85244540  -2.71115192   3.15595880
 H  -4.21947649  -3.49518228   2.73703140
 H  -4.37728126  -2.37398508   4.08347153
 H  -5.81871343  -3.15610490   3.41650261
 N  -3.51865336   0.61363163   4.18872804
 H  -3.44875392  -0.39086776   4.18818660
 C  -2.33799991   1.27677519   3.61654162
 H  -2.55684721   2.34117410   3.61330965
 C  -2.15476707   0.76551757   2.17898928
 C  -1.07359562   1.00809266   4.43226511
 H  -0.80985109  -0.04466327   4.30493363
 H  -1.30349828   1.18865759   5.48213172
 O  -1.80841567  -0.42593265   1.98463865
 C   0.06431295   1.88622108   3.98237380
 C   0.91558179   1.45397364   2.96178198
 H   0.72857570   0.48686314   2.50620205
 C   0.28336734   3.14350966   4.54981586
 H  -0.36576315   3.49158308   5.34456467
 C   1.98881895   2.23863003   2.54486358
 H   2.68801794   1.84848042   1.81205242
 C   1.33731435   3.94397059   4.11403967
 H   1.49179493   4.91830874   4.56345818
 C   2.19715494   3.49180302   3.11496919
 H   3.02961565   4.10852417   2.79302870
 N  -2.53498299   1.67014467   1.23303200
 H  -2.66096442   2.60760105   1.56340135
 C  -2.33476152   1.49747091  -0.20474984
 H  -2.70185212   0.49198042  -0.42703527
 C  -0.83951199   1.55804600  -0.50776653
 C  -3.09591792   2.55882891  -0.98191604
 H  -2.74313843   3.54114716  -0.65951851
 H  -4.15242493   2.48375559  -0.70305998
 O  -0.21214164   2.60782927  -0.58222323
 C  -2.98049553   2.47618524  -2.50650201
 H  -1.92610467   2.63122736  -2.76175698
 C  -3.41744686   1.12417931  -3.05654126
 H  -4.45608157   0.91655025  -2.77959501
 H  -2.79447526   0.30336890  -2.69533508
 H  -3.35959472   1.12593175  -4.14818625
 C  -3.79225054   3.60398843  -3.13768163
 H  -4.85303220   3.48263281  -2.90653238
 H  -3.67887522   3.60530516  -4.22391223
 H  -3.46889126   4.57778870  -2.76468201
 N  -0.26589340   0.33207851  -0.66971390
 H  -0.78269228  -0.41385718  -0.21695557
 C   1.18996053   0.19019391  -0.57052366
 H   1.52814238   0.84823198   0.23368609
 C   1.81726000   0.61737285  -1.90270565
 C   1.54466330  -1.25594448  -0.22492384
 H   1.25070954  -1.90800819  -1.05047932
 H   0.96976473  -1.54197549   0.66553328
 O   2.11607320  -0.19321589  -2.78269511
 C   3.03579533  -1.39536824   0.07603972
 H   3.27906308  -2.37942229   0.47879914
 H   3.63314392  -1.20531478  -0.82137246
 C   3.32669965  -0.32719375   1.14918050
 O   4.02566086   0.63735048   0.80362506
 O   2.81746477  -0.55306131   2.25685090
 N   2.04735876   1.94289009  -2.05647724
 H   1.59053736   2.57509817  -1.41141096
 C   2.46494867   2.46552182  -3.35156935
 H   1.99763228   1.83972414  -4.11023521
 C   3.98983145   2.34745347  -3.49325402
 C   2.00567119   3.90649334  -3.49798741
 H   0.92781911   3.93363542  -3.32798901
 H   2.49749368   4.53425229  -2.75649994
 O   4.74797592   3.29898220  -3.32907494
 C   2.31462486   4.47389280  -4.86696373
 N   1.86665695   3.73934059  -5.91671105
 H   1.96864135   4.13011460  -6.83954873
 H   1.22363315   2.98392661  -5.77360750
 O   2.96582016   5.49571756  -5.01410514
 N   4.44008992   1.10692789  -3.81029931
 H   3.77106515   0.34669378  -3.74641805
 C   5.85675006   0.77893305  -3.66396089
 H   6.22025028   1.27169442  -2.75536711
 C   6.61984884   1.33079613  -4.87063265
 C   6.01395546  -0.73792674  -3.53113123
 H   5.23454316  -1.08113391  -2.84261635
 H   5.81999788  -1.18926144  -4.50502777
 O   6.77579533   0.68816115  -5.90912795
 C   7.35363752  -1.15881731  -2.99226671
 C   8.46664040  -1.29050888  -3.82648884
 H   8.35847282  -1.09037236  -4.88676549
 C   7.52351484  -1.41089081  -1.63011622
 H   6.67529386  -1.31989300  -0.95966222
 C   9.71011947  -1.66180301  -3.31579024
 H   10.57071327  -1.76620187  -3.96422113
 C   8.75962372  -1.77923727  -1.10591319
 H   8.86301151  -1.96793554  -0.04257306
 O   11.09620492  -2.26403500  -1.50991587
 H   11.06353995  -2.40151589  -0.55999531
 C   9.85509382  -1.90493291  -1.95429854
 N   7.09034172   2.59045910  -4.70774860
 H   6.71963048   3.16103710  -3.95598219
 C   7.76649847   3.26389997  -5.78836933
 H   8.08229252   2.49966219  -6.50001957
 C   9.01390983   3.97264602  -5.30356220
 C   6.88071578   4.27578726  -6.51964272
 H   6.55413845   5.06568709  -5.84423361
 H   7.49728869   4.75214494  -7.28083050
 O   10.01233324   4.12759403  -5.95580824
 C   5.68197328   3.62402535  -7.19367563
 H   6.00491412   2.73483081  -7.74012181
 H   4.96279344   3.28850559  -6.44404680
 C   5.00145426   4.58434750  -8.16160839
 H   5.69863146   4.86927641  -8.95099374
 H   4.14627798   4.10380178  -8.64069030
 N   4.49074291   5.79770329  -7.49344452
 H   3.81389106   5.58505752  -6.76444449
 N   6.33318866   7.13323740  -7.95253012
 H   6.88578901   7.94546867  -7.73321619
 H   6.19371971   6.95958787  -8.93733904
 N   5.21592394   7.36257658  -5.90412864
 H   5.56770077   8.29690928  -5.75982717
 H   4.44765504   7.07345578  -5.30710393
 C   5.32239879   6.78649815  -7.11823296
 O   8.86394895   4.46903817  -4.05477035
 H   9.68780066   4.92245870  -3.83548452
