21
conf-883
 N  -9.40106064   1.01967539   6.53806578
 H  -9.98187557   1.05928526   5.69743833
 H  -9.94202863   1.38199674   7.32270484
 H  -9.18241746   0.03737925   6.71854085
 C  -8.13905625   1.78377671   6.35309325
 H  -8.38390258   2.81304267   6.07270161
 C  -7.35237623   1.12961221   5.21971954
 C  -7.31260016   1.78767086   7.63278801
 H  -7.02319383   0.75571239   7.83612300
 H  -7.96372128   2.11529515   8.44740999
 O  -6.90613714  -0.02703034   5.32853096
 C  -6.10233555   2.68127732   7.55080406
 C  -4.92350218   2.22865078   6.95982269
 H  -4.90385374   1.22350426   6.55965460
 C  -6.14211065   3.98598215   8.04196953
 H  -7.04847768   4.35536407   8.50588513
 C  -3.80168175   3.05179141   6.88296034
 H  -2.89328251   2.67324600   6.44676983
 C  -5.02733176   4.81790687   7.95304772
 H  -5.08283521   5.82876323   8.34221410
 C  -3.85119340   4.35155638   7.37550703
 H  -2.97919039   4.99435973   7.31169995
 N  -7.25093648   1.87539009   4.09699098
 H  -7.54811233   2.83402120   4.11357209
 C  -6.72972304   1.34486437   2.84627997
 H  -6.89735778   0.26504234   2.89695871
 C  -5.22418526   1.60850725   2.77596343
 C  -7.45902716   1.96006624   1.66910049
 H  -7.07369320   1.55620000   0.73101115
 H  -7.31602226   3.04163096   1.65576719
 H  -8.52614681   1.73759437   1.73618618
 O  -4.74252491   2.55508147   2.15015480
 N  -4.45529333   0.73685674   3.45718590
 H  -4.90966355   0.05497742   4.05153968
 C  -3.01057221   0.88410831   3.54087281
 H  -2.80734877   1.96336367   3.51829130
 C  -2.32765960   0.27047679   2.31040896
 C  -2.49417347   0.26084508   4.82352586
 H  -1.42201304   0.42794614   4.92070683
 H  -2.68213626  -0.81400090   4.82505314
 H  -3.00966398   0.70754117   5.68430632
 O  -1.46352926  -0.59450256   2.39084188
 N  -2.75709107   0.73407672   1.10981740
 H  -3.30936610   1.58176619   1.10235230
 C  -2.01705482   0.36696231  -0.07925339
 H  -2.00955049  -0.72337081  -0.14740323
 C  -0.57072839   0.83082815   0.03859018
 C  -2.68081568   0.95144263  -1.33164987
 H  -3.69816763   0.55783507  -1.36657199
 H  -2.73545193   2.03574457  -1.21660448
 O  -0.24600277   1.91232817   0.50431986
 C  -1.93225534   0.63510249  -2.58441962
 C  -1.34559490   1.67151053  -3.32139241
 H  -1.47947765   2.69747593  -2.99200989
 C  -1.73300471  -0.68870702  -3.00315829
 H  -2.18662510  -1.49176057  -2.43012161
 C  -0.61857038   1.41767904  -4.45763520
 H  -0.17991372   2.21258498  -5.04023789
 C  -0.97152854  -0.99562299  -4.10713084
 H  -0.80701055  -2.01736805  -4.41913777
 O   0.32250559  -0.18700305  -5.90017154
 C  -0.36121041   0.06014289  -4.90417548
 N   0.32310196  -0.08032104  -0.42650741
 H  -0.01449424  -0.82902754  -1.00852157
 C   1.74149279   0.19557783  -0.39174707
 H   1.84071850   1.10617458   0.19641550
 C   2.20654203   0.48696757  -1.81195195
 C   2.53423628  -0.92887644   0.24714033
 H   2.52098398  -1.79733711  -0.41264351
 H   3.57893526  -0.61044727   0.32634809
 O   2.54590628  -0.40413488  -2.58827989
 C   2.02718747  -1.33135155   1.63413518
 H   1.00152121  -1.69281399   1.52496436
 C   2.88146746  -2.47073274   2.18095669
 H   3.91987561  -2.14781075   2.29164665
 H   2.52158649  -2.79585568   3.16008234
 H   2.86166949  -3.33354802   1.51123289
 C   2.01088203  -0.15286918   2.60504013
 H   3.03118436   0.19809416   2.79154041
 H   1.42281125   0.68718579   2.23401469
 H   1.58123836  -0.46087184   3.56281608
 N   2.17778428   1.78916422  -2.17421445
 H   1.78973891   2.46412599  -1.53975427
 C   2.51167754   2.21680000  -3.53342857
 H   2.04588269   1.49270871  -4.21163701
 C   4.03823324   2.19946642  -3.70592149
 C   1.93762782   3.60448649  -3.79081447
 H   0.87771842   3.57138909  -3.50827722
 H   2.42213742   4.32370112  -3.13147965
 O   4.72879386   3.20902761  -3.66294085
 C   2.08039343   4.05347356  -5.24552153
 H   1.62980417   3.32636406  -5.92460380
 H   3.13739275   4.13622908  -5.51199217
 C   1.42822370   5.38200926  -5.50035500
 O   0.59795196   5.60842770  -6.34462215
 O   1.89729315   6.34194321  -4.66929483
 N   4.59661329   0.97830805  -3.90564341
 H   4.04328540   0.15110446  -3.72162882
 C   6.04032492   0.86649087  -3.92804453
 H   6.46052372   1.40658034  -3.06973085
 C   6.64590964   1.53675238  -5.15089055
 C   6.47145301  -0.59916184  -3.86393090
 H   7.54191204  -0.65076095  -4.05598642
 H   5.97440211  -1.14607176  -4.66487387
 O   7.74301989   2.03689339  -5.15385609
 C   6.15908929  -1.22725975  -2.51435437
 H   5.08425809  -1.17623056  -2.31732289
 H   6.64725476  -0.65000511  -1.72336707
 C   6.60796231  -2.67032591  -2.42856337
 H   6.16556595  -3.23611474  -3.25071237
 H   6.26554208  -3.12425824  -1.49283370
 N   8.08241118  -2.74161633  -2.53160061
 H   8.56931275  -2.00270428  -2.04554461
 N   8.09288411  -5.06071343  -2.81018519
 H   8.55290906  -5.92154096  -2.55719503
 H   7.09389080  -5.05635800  -2.67292089
 N   10.09256765  -3.90464493  -2.39790489
 H   10.57850944  -4.70115847  -2.78582989
 H   10.55820038  -3.02587418  -2.58932084
 C   8.74457974  -3.90495991  -2.56929957
 O   5.86464530   1.47039684  -6.24830932
 H   1.43908252   7.15610989  -4.91323063
 H   6.35733905   1.90538287  -6.95501807
