21
conf-962
 N  -8.63250647   0.46790825   7.54749160
 H  -8.52537553  -0.54560971   7.51848008
 H  -9.32373768   0.70956285   8.25417615
 H  -7.73318758   0.84994163   7.83233269
 C  -9.00662431   0.99148893   6.22138745
 H  -9.93923421   0.51380601   5.89712602
 C  -7.92099973   0.59692070   5.22443155
 C  -9.24972254   2.50682871   6.25233576
 H  -10.10465753   2.68254487   6.91206621
 H  -9.54786438   2.82803366   5.25206193
 O  -6.89040875   0.04694322   5.59546198
 C  -8.07469483   3.31496860   6.72814933
 C  -7.91964838   3.61195048   8.08191618
 H  -8.65328710   3.24579249   8.79323150
 C  -7.11985719   3.80367704   5.83330378
 H  -7.21211937   3.58475408   4.77484307
 C  -6.83791648   4.36278263   8.53910476
 H  -6.73566462   4.56805113   9.59807518
 C  -6.05904450   4.58047875   6.28288792
 H  -5.33296833   4.94539412   5.56625788
 C  -5.90114500   4.85121506   7.63520324
 H  -5.06024034   5.44114076   7.97759740
 N  -8.16633614   0.89190494   3.92528777
 H  -9.06764712   1.25348255   3.66616593
 C  -7.26243347   0.49701168   2.85136689
 H  -6.83404192  -0.46721163   3.13924506
 C  -6.12470167   1.51505897   2.75158044
 C  -7.99637135   0.37677310   1.53018336
 H  -7.28095071   0.16241041   0.72902398
 H  -8.49377056   1.31877246   1.29252300
 H  -8.73291785  -0.42607384   1.57965370
 O  -6.05833912   2.35489326   1.84846152
 N  -5.21214314   1.45991858   3.74196000
 H  -5.31940822   0.76518634   4.47105885
 C  -3.99332210   2.25189946   3.70611707
 H  -4.27255456   3.23830690   3.31971550
 C  -3.00283512   1.59368669   2.73051633
 C  -3.41153699   2.36102481   5.10052866
 H  -2.58029382   3.06823672   5.11074591
 H  -3.04551235   1.39068092   5.43646122
 H  -4.18163389   2.71117322   5.79658542
 O  -2.08480730   0.87432411   3.10778850
 N  -3.25278260   1.84587791   1.42114911
 H  -4.12901622   2.30161565   1.20127873
 C  -2.57903756   1.09963295   0.37644271
 H  -2.82369602   0.03861847   0.48657986
 C  -1.06458486   1.26693462   0.49008267
 C  -3.02779245   1.59861285  -1.00428609
 H  -2.78674187   2.65902581  -1.06510578
 H  -2.42280437   1.09184689  -1.76056945
 O  -0.53608196   2.35739272   0.66534220
 C  -4.47949758   1.39349652  -1.29095786
 C  -5.30012324   2.49533219  -1.58299219
 H  -4.86630408   3.49106848  -1.55399905
 C  -5.04927634   0.11628003  -1.29714557
 H  -4.42422555  -0.73816186  -1.06208804
 C  -6.63291576   2.35919057  -1.88517972
 H  -7.26533610   3.20986252  -2.09894701
 C  -6.36574741  -0.08468978  -1.64091560
 H  -6.81122970  -1.07133871  -1.65052251
 O  -8.43943738   0.88861076  -2.19915358
 C  -7.24380907   1.04017958  -1.93096432
 N  -0.36351367   0.10845705   0.33686078
 H  -0.80820518  -0.70676566  -0.05210258
 C   1.08027688   0.08842473   0.29978958
 H   1.40552992   1.12420233   0.39138189
 C   1.51484985  -0.48901835  -1.04833597
 C   1.68830564  -0.74663959   1.42763651
 H   1.46987372  -1.80013628   1.23782973
 H   2.77557730  -0.63469159   1.38355750
 O   0.89461764  -1.38964655  -1.59064402
 C   1.21331432  -0.38710486   2.83733695
 H   0.13915021  -0.57014041   2.88737334
 C   1.89888691  -1.29559460   3.85331947
 H   2.98089910  -1.14509566   3.82458669
 H   1.55193682  -1.08259932   4.86709822
 H   1.69461240  -2.34717277   3.63933093
 C   1.46654396   1.08042112   3.16707648
 H   2.54141125   1.28672697   3.17585237
 H   0.99551772   1.74756537   2.44775410
 H   1.06276605   1.32291762   4.15416723
 N   2.66192572   0.01467722  -1.55623217
 H   3.17863101   0.75168956  -1.09832538
 C   3.24078405  -0.47956647  -2.79279439
 H   3.16329985  -1.56750106  -2.79486620
 C   4.69656232  -0.01625279  -2.76529979
 C   2.48195586   0.07187589  -4.01276099
 H   1.44522191  -0.24673953  -3.89929449
 H   2.49623247   1.16423909  -3.95880343
 O   5.02606618   1.00682815  -2.19323535
 C   3.02230408  -0.35971770  -5.38269850
 H   4.03352302   0.00741735  -5.53160585
 H   2.38756362   0.05394769  -6.16819147
 C   3.04990031  -1.85220510  -5.49240873
 O   3.94335930  -2.55088376  -5.06309743
 O   1.95312755  -2.36436096  -6.08300599
 N   5.58856293  -0.79585911  -3.42029726
 H   5.24743016  -1.57786354  -3.97051201
 C   6.94884514  -0.33350501  -3.60723291
 H   7.30879232   0.05400282  -2.64955687
 C   6.99007562   0.79782046  -4.61896832
 C   7.82093694  -1.51062439  -4.06482683
 H   7.44636365  -1.85914525  -5.02833181
 H   7.65666395  -2.31420848  -3.34180663
 O   6.23898515   0.93059609  -5.55093461
 C   9.30396367  -1.18859301  -4.14152328
 H   9.64050343  -0.75973588  -3.19336295
 H   9.48842283  -0.44270806  -4.90979660
 C   10.15585932  -2.41560856  -4.43833355
 H   10.05197762  -3.14628213  -3.63336611
 H   11.21670644  -2.15015859  -4.47464418
 N   9.79530645  -3.13142448  -5.67729844
 H   9.02817490  -3.78152820  -5.58593821
 N   10.62008127  -1.44159412  -7.05430725
 H   10.93350330  -1.17352115  -7.97297697
 H   11.19236165  -1.12798864  -6.28783078
 N   9.33122928  -3.18257094  -7.95529336
 H   9.64462039  -2.91423548  -8.87635008
 H   9.08826385  -4.15971577  -7.86129124
 C   9.93382559  -2.58937698  -6.89423587
 O   8.01677496   1.64017744  -4.37492655
 H   2.05711755  -3.32547996  -6.07592571
 H   7.98976424   2.31321193  -5.06559508
