21
conf-234
 N  -11.15453294   2.00234133   2.98541389
 H  -11.49907476   1.83102865   2.03991923
 H  -11.61663589   2.81520360   3.39376293
 H  -11.33629614   1.16134149   3.54457939
 C  -9.69237400   2.17337124   3.00698062
 H  -9.35963439   2.62860483   2.07002742
 C  -9.07849920   0.78067541   3.17227211
 C  -9.25908405   3.07738951   4.16444504
 H  -8.16995203   3.15675071   4.16010878
 H  -9.54464521   2.60570831   5.10792164
 O  -9.73205881  -0.14613939   3.62777005
 C  -9.87915186   4.44855011   4.06934645
 C  -9.50144221   5.32274273   3.05201985
 H  -8.73642243   5.00806742   2.35154892
 C  -10.88029002   4.84401832   4.95063961
 H  -11.19840768   4.16558025   5.73651775
 C  -10.08936784   6.57803738   2.93438749
 H  -9.77108186   7.24491755   2.14117274
 C  -11.48581986   6.09175212   4.83046786
 H  -12.26695413   6.37734550   5.52520799
 C  -11.08802540   6.96525372   3.82284841
 H  -11.55362120   7.93983694   3.73028036
 N  -7.77586893   0.66056881   2.84267051
 H  -7.22891405   1.42373357   2.47431064
 C  -7.06996488  -0.59373514   3.00156882
 H  -7.31468291  -1.00834625   3.98260831
 C  -5.58576757  -0.24625897   2.93059523
 C  -7.46910282  -1.61398009   1.93453700
 H  -6.91954542  -2.54781771   2.06507055
 H  -7.26088788  -1.22216864   0.93593380
 H  -8.53704811  -1.81241506   2.01255746
 O  -5.19746640   0.78917898   2.39750544
 N  -4.73908798  -1.16114249   3.44120912
 H  -5.10899027  -1.98195649   3.88600318
 C  -3.30119985  -0.92951219   3.52800012
 H  -3.17375542   0.15427266   3.63784249
 C  -2.61977262  -1.34905757   2.21695612
 C  -2.73003444  -1.66720047   4.72590304
 H  -1.65505869  -1.50188952   4.79807631
 H  -2.90423388  -2.74064897   4.62820148
 H  -3.20272861  -1.30460854   5.64123300
 O  -1.72865993  -2.19384745   2.16534576
 N  -3.09462124  -0.73324837   1.10213876
 H  -3.70585686   0.06468646   1.21432331
 C  -2.45149854  -0.96663515  -0.17502210
 H  -2.26071879  -2.03896777  -0.24974405
 C  -1.13056776  -0.21735716  -0.24290014
 C  -3.33925849  -0.52235299  -1.34633345
 H  -4.27084057  -1.09115367  -1.28581759
 H  -3.58755287   0.53321155  -1.21897973
 O  -1.07315044   1.00569333  -0.13916569
 C  -2.67049899  -0.69868686  -2.68235868
 C  -2.77324600   0.30841379  -3.65864866
 H  -3.37521279   1.19070810  -3.45946892
 C  -1.88654608  -1.83444708  -2.96450437
 H  -1.84683122  -2.65143967  -2.25147376
 C  -2.11960796   0.21240026  -4.86084496
 H  -2.22545741   0.96330840  -5.63297259
 C  -1.15017858  -1.93367662  -4.11903473
 H  -0.50928793  -2.78337489  -4.31687713
 O  -0.52883292  -0.94919879  -6.16265545
 C  -1.20074184  -0.88727230  -5.13010566
 N  -0.04103715  -0.99038009  -0.43461985
 H  -0.16854438  -1.96294183  -0.65626474
 C   1.28884142  -0.43344636  -0.60180588
 H   1.36127446   0.40038128   0.10059791
 C   1.40786931   0.12742929  -2.02196652
 C   2.34763625  -1.47589682  -0.29615563
 H   2.35400489  -2.23042839  -1.08307410
 H   3.32574171  -0.98657093  -0.32987487
 O   1.88345613  -0.51604771  -2.95820668
 C   2.17701581  -2.15152098   1.06697704
 H   1.27219242  -2.77273874   1.02944869
 C   3.37206098  -3.06206940   1.33110667
 H   4.28797303  -2.47109762   1.41698412
 H   3.24308649  -3.62164456   2.26065699
 H   3.50954709  -3.78383462   0.52217491
 C   2.00046483  -1.13592429   2.19184665
 H   2.79883462  -0.38705928   2.15786183
 H   1.03965800  -0.61983003   2.12761563
 H   2.04507068  -1.63100357   3.16507434
 N   0.92390107   1.37747020  -2.17887202
 H   0.37254181   1.75914137  -1.42010243
 C   0.81833298   2.01386864  -3.48473877
 H   0.53563944   1.23531717  -4.20627569
 C   2.18057530   2.60280819  -3.86922896
 C  -0.26994529   3.07984893  -3.42849445
 H  -1.16815928   2.58530283  -3.03775127
 H   0.01841810   3.85115334  -2.71650511
 O   2.42430995   3.80007076  -3.85147169
 C  -0.60016491   3.71073936  -4.77833941
 H  -0.66004490   2.92993833  -5.54420490
 H   0.16652708   4.41262865  -5.10015101
 C  -1.94363184   4.38773438  -4.75420692
 O  -2.88402798   4.04647515  -4.07620015
 O  -2.01697806   5.41906111  -5.62103013
 N   3.12813771   1.69531746  -4.22041835
 H   2.95263907   0.71225851  -4.05148390
 C   4.48051574   2.15312865  -4.45268376
 H   4.78523081   2.80634240  -3.62450685
 C   4.58927306   3.02218022  -5.69580962
 C   5.45979304   0.98138150  -4.55222491
 H   6.43074505   1.38835282  -4.84340067
 H   5.14001492   0.31077186  -5.34793592
 O   5.43092872   3.87594324  -5.82654568
 C   5.60405697   0.22925953  -3.23792492
 H   4.65831369  -0.24293512  -2.95616297
 H   5.84431049   0.94440420  -2.44336777
 C   6.69984485  -0.81580620  -3.28754576
 H   6.85807403  -1.25795129  -2.29799318
 H   7.63542894  -0.34180896  -3.58991490
 N   6.35038556  -1.86102549  -4.27487984
 H   5.37818127  -2.12950854  -4.26714553
 N   8.49571525  -2.78744210  -4.26173364
 H   9.02715490  -3.64433608  -4.26634576
 H   8.74445444  -2.13785534  -3.53155463
 N   6.71650846  -3.91657093  -5.29737043
 H   7.40884162  -4.43792939  -5.81684207
 H   5.86927288  -3.74783240  -5.82599124
 C   7.19102902  -2.85450389  -4.59571343
 O   3.69703982   2.71334623  -6.65713416
 H  -2.91655667   5.76568534  -5.54551189
 H   3.87340703   3.31344333  -7.39210549
