21
conf-231
 N  -11.09286353   6.96326778   0.95361979
 H  -11.48018358   6.55865960   0.09941759
 H  -11.33561975   7.95163495   0.99190735
 H  -11.52641878   6.48145099   1.74573086
 C  -9.63431399   6.75571215   1.03773442
 H  -9.16328891   7.05557850   0.09771116
 C  -9.36755448   5.27400903   1.30356571
 C  -9.03108950   7.59097630   2.17270858
 H  -9.48656112   7.25653110   3.10720988
 H  -9.32790233   8.63049981   2.00665858
 O  -10.14172612   4.58565784   1.95195243
 C  -7.53184122   7.47290316   2.24461446
 C  -6.92141050   6.65601733   3.19282569
 H  -7.53539287   6.08534776   3.88335320
 C  -6.73488744   8.15404445   1.32718711
 H  -7.21834837   8.76889118   0.57332422
 C  -5.53127526   6.55058971   3.23791839
 H  -5.06642026   5.91249381   3.98353154
 C  -5.34678174   8.05169847   1.37134163
 H  -4.74475946   8.59925423   0.65656202
 C  -4.74042606   7.25017405   2.33279564
 H  -3.66145104   7.16967610   2.37426778
 N  -8.20233118   4.79919147   0.80480923
 H  -7.52324212   5.42746559   0.39923835
 C  -7.69916103   3.49530744   1.19580928
 H  -8.06827268   3.27045536   2.20023034
 C  -6.18217567   3.60734943   1.21696726
 C  -8.15536624   2.39792095   0.23699716
 H  -7.73874721   1.43363451   0.54074885
 H  -7.80865895   2.62137950  -0.77362076
 H  -9.24416593   2.33245092   0.23075167
 O  -5.57094544   4.26631366   0.39024471
 N  -5.55946018   2.91693279   2.21799045
 H  -6.07122687   2.14114840   2.60484756
 C  -4.12469426   2.70604345   2.14499801
 H  -3.70333353   3.60726071   1.69773096
 C  -3.84772029   1.50462194   1.23070190
 C  -3.55037563   2.48191534   3.53704881
 H  -2.46573230   2.36026708   3.49849916
 H  -3.98420700   1.58577475   3.98858807
 H  -3.78678761   3.33913732   4.16982534
 O  -4.67214488   0.62550842   1.03749342
 N  -2.60803252   1.46782770   0.69039306
 H  -1.90254959   2.15678997   0.89896752
 C  -2.19192660   0.35684730  -0.13212878
 H  -2.57130656  -0.57047152   0.30628693
 C  -0.66455054   0.35230539  -0.12891307
 C  -2.77275394   0.45784615  -1.56005227
 H  -3.85517257   0.51135754  -1.45230683
 H  -2.42284830   1.38229921  -2.02901584
 O  -0.03308160   1.36142271   0.17014708
 C  -2.35670694  -0.72192227  -2.36749669
 C  -1.28123616  -0.61781169  -3.25864444
 H  -0.86314430   0.35889767  -3.46325985
 C  -2.88354171  -1.98957282  -2.08314184
 H  -3.72180614  -2.05225943  -1.38807425
 C  -0.70242997  -1.72199806  -3.80185392
 H   0.17054128  -1.63590090  -4.44072303
 C  -2.32500241  -3.12697822  -2.59458946
 H  -2.70277624  -4.11061292  -2.34762217
 O  -0.59768395  -4.06816890  -3.89367294
 C  -1.15529550  -3.05692813  -3.46015686
 N  -0.06224359  -0.81386252  -0.46363151
 H  -0.60043708  -1.50819424  -0.98369113
 C   1.39313876  -0.89367401  -0.58219884
 H   1.77850142  -0.23071589   0.19106796
 C   1.81368518  -0.36117877  -1.94591670
 C   1.86453773  -2.31847702  -0.33834978
 H   1.36348597  -2.67711483   0.56398458
 H   1.52779758  -2.93916790  -1.17223113
 O   2.18103495  -1.10241875  -2.86918097
 C   3.37607253  -2.49056116  -0.16259196
 H   3.86394231  -2.06437955  -1.04686689
 C   3.89426382  -1.77317617   1.07893164
 H   3.43782365  -2.19741767   1.97838109
 H   4.97724825  -1.88918352   1.16503801
 H   3.67339647  -0.70402627   1.05728911
 C   3.71223160  -3.97952749  -0.10219127
 H   3.21528515  -4.44684194   0.75167438
 H   3.38753076  -4.49321066  -1.00933532
 H   4.78794091  -4.13578204   0.00611079
 N   1.75012914   0.97825623  -2.09718693
 H   1.35446300   1.52266067  -1.33772777
 C   1.78116160   1.57911400  -3.42556503
 H   1.42287384   0.81914740  -4.12924878
 C   3.22655292   1.92628133  -3.80514972
 C   0.86262462   2.79607959  -3.48989147
 H  -0.04541609   2.57017508  -2.92057954
 H   1.35423367   3.63721044  -2.99489195
 O   3.59012638   3.05568168  -4.09497178
 C   0.47855634   3.18809957  -4.92249372
 H   1.37573485   3.37653278  -5.51104299
 H  -0.12860756   4.09517845  -4.90698435
 C  -0.30624269   2.07955135  -5.56038834
 O   0.09325331   1.30968793  -6.39581960
 O  -1.55834173   1.99098685  -5.03864172
 N   4.09435845   0.88283605  -3.77079961
 H   3.71909987  -0.05175378  -3.68899282
 C   5.44555194   1.06642331  -4.25590372
 H   5.82148830   2.01351917  -3.85807896
 C   5.44913062   1.14064741  -5.77147805
 C   6.33050934  -0.08985509  -3.77561720
 H   5.98245921  -1.01531975  -4.24171528
 H   6.16675127  -0.18337002  -2.69873842
 O   4.69932762   0.54869436  -6.50222822
 C   7.81519755   0.10754100  -4.04457059
 H   8.13457728   1.06461225  -3.62600203
 H   8.00610775   0.14805833  -5.11796229
 C   8.64813959  -1.00044949  -3.42617672
 H   8.33930432  -1.97339329  -3.82803081
 H   8.47256031  -1.01981845  -2.34698544
 N   10.07965174  -0.75441165  -3.68455172
 H   10.27836676  -0.33727254  -4.58227313
 N   10.73604492  -2.61021422  -2.41838609
 H   11.47080887  -3.03480473  -1.87652960
 H   9.81536385  -2.63951291  -2.01498309
 N   12.29918019  -1.41266989  -3.69603399
 H   13.03579099  -1.89382657  -3.20404875
 H   12.54348316  -0.48320906  -4.00882663
 C   11.03458272  -1.59103323  -3.24462220
 O   6.44913898   1.93237557  -6.22168229
 H  -1.97257016   1.23004050  -5.46359189
 H   6.40116629   1.89845213  -7.18479531
