21
conf-981
 N  -10.49457199   4.52452982   5.07553089
 H  -11.22984334   3.87565426   4.79815885
 H  -10.83288673   5.13657435   5.81463966
 H  -9.71422068   3.96927536   5.44315851
 C  -9.96765377   5.27546511   3.92214869
 H  -10.79086676   5.55037614   3.25054663
 C  -9.03067586   4.33506843   3.16812713
 C  -9.24866058   6.55890281   4.37008522
 H  -10.01070967   7.28501202   4.67147682
 H  -8.71619095   6.98217213   3.51445322
 O  -8.61387034   3.30311693   3.68874797
 C  -8.31260886   6.32637082   5.52338412
 C  -8.71851453   6.60086167   6.82900853
 H  -9.69819656   7.03148889   7.00092789
 C  -7.04536523   5.77979368   5.32317991
 H  -6.71679432   5.59060559   4.30617189
 C  -7.88862698   6.32363517   7.91178437
 H  -8.22899277   6.54109154   8.91786513
 C  -6.21430321   5.49590880   6.40467981
 H  -5.24147467   5.06899290   6.21490575
 C  -6.63180730   5.76556934   7.70310991
 H  -5.98556912   5.54364396   8.54563257
 N  -8.68092664   4.71701862   1.91835635
 H  -9.12629238   5.52419707   1.51687757
 C  -8.01235060   3.79993591   1.00063255
 H  -8.30428600   2.78845473   1.30578692
 C  -6.49401897   3.91373981   1.17172375
 C  -8.44236460   4.07793925  -0.42699190
 H  -7.92931998   3.40224092  -1.11165341
 H  -8.19150914   5.10245339  -0.70649405
 H  -9.51937624   3.92618348  -0.52713309
 O  -5.75389499   4.31220558   0.27842242
 N  -6.01441802   3.56443241   2.39463009
 H  -6.63318269   3.04726950   3.00763322
 C  -4.59365619   3.31617448   2.54917124
 H  -4.07601274   4.15021078   2.06558742
 C  -4.20355356   2.01474757   1.83400025
 C  -4.23123268   3.25071748   4.02444121
 H  -3.15305073   3.15246018   4.16570420
 H  -4.72576061   2.39918517   4.49523545
 H  -4.56784769   4.16626715   4.51900648
 O  -4.97530898   1.07924132   1.70762386
 N  -2.93053014   1.98478282   1.36757759
 H  -2.24534772   2.67887192   1.62318581
 C  -2.38592309   0.82093861   0.70702056
 H  -2.60953870  -0.06892222   1.30565830
 C  -0.86859822   1.03402324   0.66859061
 C  -2.99419476   0.58061592  -0.69075102
 H  -2.64374615  -0.39189073  -1.04514509
 H  -4.07231665   0.51458423  -0.54617032
 O  -0.33438555   2.02077150   1.14906984
 C  -2.68226092   1.63210295  -1.69429246
 C  -3.35475477   2.87453916  -1.65426507
 H  -4.11062776   3.04528779  -0.89002622
 C  -1.72250688   1.41815757  -2.70586568
 H  -1.23930024   0.44853111  -2.76725639
 C  -3.08975074   3.87441322  -2.55241925
 H  -3.60611238   4.82532535  -2.51166727
 C  -1.42738828   2.39165849  -3.62150792
 H  -0.71286510   2.24478634  -4.41104417
 O  -1.82794104   4.56243908  -4.41496331
 C  -2.09344102   3.67967971  -3.59647235
 N  -0.16418827   0.05146483   0.06591149
 H  -0.61738146  -0.74779314  -0.34865780
 C   1.26734764   0.14914199  -0.12275593
 H   1.51724514   1.21113100  -0.18740993
 C   1.58058356  -0.56143589  -1.42828400
 C   2.02921284  -0.47989877   1.04903329
 H   1.73681646   0.05900424   1.95166853
 H   1.67792112  -1.50856461   1.15861656
 O   1.04163363  -1.61889140  -1.72626107
 C   3.55640275  -0.49535080   0.93291379
 H   3.82750739  -1.03000788   0.01653717
 C   4.14181477   0.91017033   0.86665459
 H   3.89466484   1.46284226   1.77726598
 H   5.23025874   0.86898370   0.77311411
 H   3.77079304   1.48125067   0.01246309
 C   4.14028036  -1.26064244   2.11840178
 H   3.86858027  -0.76885620   3.05527810
 H   3.76284630  -2.28495869   2.14758331
 H   5.22987041  -1.30523668   2.06039126
 N   2.49756704   0.06202960  -2.21071292
 H   3.05218963   0.80542558  -1.81903893
 C   3.10171212  -0.56981602  -3.36137700
 H   2.76183978  -1.60428082  -3.40373147
 C   4.61428711  -0.49783811  -3.16214641
 C   2.70852979   0.14816689  -4.65369971
 H   3.14357179   1.15121098  -4.64167054
 H   3.14735037  -0.37988692  -5.49947106
 O   5.13200720   0.31493714  -2.41783402
 C   1.19898359   0.27437056  -4.85182596
 H   0.99744023   0.89355900  -5.73253692
 H   0.72041164   0.76714126  -4.00571063
 C   0.47775526  -1.02238337  -5.06439966
 O  -0.60414045  -1.30183019  -4.60969173
 O   1.15086208  -1.85523277  -5.89024276
 N   5.34207473  -1.38961647  -3.88796076
 H   4.88084613  -1.87431153  -4.63442788
 C   6.78221457  -1.22546856  -4.01128404
 H   7.19400867  -1.06194034  -3.01310177
 C   7.14545156  -0.00440790  -4.83386625
 C   7.38881222  -2.49475115  -4.61966046
 H   6.97928961  -2.64755229  -5.61574247
 H   7.05365218  -3.33027952  -3.99992605
 O   8.15798702   0.63609104  -4.69909430
 C   8.90869213  -2.48136489  -4.65874329
 H   9.29098069  -2.23719319  -3.66153927
 H   9.27371530  -1.69931073  -5.32475792
 C   9.47657927  -3.81967791  -5.08719690
 H   9.08890003  -4.60335026  -4.43366449
 H   10.56889344  -3.82178123  -4.99583507
 N   9.07036084  -4.10838846  -6.48021497
 H   9.09134326  -3.30441072  -7.09062541
 N   9.76582910  -6.33518595  -6.37109961
 H   10.23503316  -7.07946156  -6.86370020
 H   10.11693241  -6.15268496  -5.44354571
 N   9.20029801  -5.36652408  -8.43236879
 H   9.06876092  -6.30437850  -8.78469327
 H   8.56667977  -4.69503801  -8.84871852
 C   9.35895904  -5.26678105  -7.08658633
 O   6.22867972   0.27710834  -5.78826839
 H   0.59794538  -2.64020608  -5.98970495
 H   6.57475064   1.03469508  -6.27484295
