21
conf-669
 N  -3.70323212  -4.77225422   8.86966199
 H  -3.99944075  -5.74644800   8.94545678
 H  -3.60568189  -4.35177858   9.79439973
 H  -2.80803462  -4.75419498   8.36771630
 C  -4.63143718  -3.98600839   8.03951438
 H  -5.65499837  -4.33816661   8.19214407
 C  -4.21365713  -4.16809263   6.58564336
 C  -4.56502379  -2.50017488   8.41024426
 H  -5.19890402  -1.94015105   7.72067168
 H  -3.53991089  -2.15078712   8.26207095
 O  -3.06542140  -4.46349015   6.29709250
 C  -4.99158963  -2.25893995   9.83403850
 C  -6.32254031  -2.43341742   10.21012239
 H  -7.04587322  -2.71879982   9.45443067
 C  -4.06154578  -1.92083422   10.81204704
 H  -3.01784711  -1.80156075   10.53764589
 C  -6.72209653  -2.24292419   11.52911387
 H  -7.76494022  -2.37358794   11.79524468
 C  -4.44991452  -1.74431423   12.13728325
 H  -3.70758702  -1.48488334   12.88296843
 C  -5.78443170  -1.90097488   12.49902549
 H  -6.09092997  -1.75877698   13.52904107
 N  -5.18822282  -3.95812470   5.65086233
 H  -5.99745430  -3.44557770   5.96352949
 C  -4.79980133  -3.63137469   4.28904340
 H  -3.81944996  -4.07934566   4.13136335
 C  -4.68564669  -2.10312148   4.17292044
 C  -5.80447663  -4.17323928   3.28240611
 H  -5.48566729  -3.94885454   2.26141454
 H  -6.78796650  -3.72196712   3.44103372
 H  -5.89648760  -5.25461477   3.38963679
 O  -5.31632494  -1.34426669   4.89201580
 N  -3.87725176  -1.66189673   3.18458257
 H  -3.38565486  -2.28699797   2.56564528
 C  -3.72751900  -0.25167936   2.91566921
 H  -4.71721625   0.21216190   2.93266570
 C  -3.12217858  -0.15101696   1.51445668
 C  -2.85252642   0.43937419   3.96094345
 H  -2.76448516   1.50735755   3.74374815
 H  -1.84770856   0.00674547   3.97987003
 H  -3.30009010   0.30941681   4.94357706
 O  -2.58754344  -1.12047501   0.98260124
 N  -3.16731554   1.07062052   0.94249947
 H  -3.71553562   1.79406471   1.37077200
 C  -2.65650425   1.31831541  -0.40284576
 H  -2.92468357   0.45430043  -1.01006707
 C  -1.13168669   1.45343786  -0.32025571
 C  -3.29106480   2.58592338  -0.98531955
 H  -2.99418186   3.44156495  -0.38258250
 H  -2.87536757   2.73612139  -1.98242292
 O  -0.56946330   2.54463940  -0.24759519
 C  -4.76622524   2.48929804  -1.04356270
 C  -5.38527982   1.63010338  -1.97107951
 H  -4.75347920   1.06759557  -2.65305201
 C  -5.56793985   3.21104716  -0.14094834
 H  -5.08596954   3.86713521   0.57874430
 C  -6.74327648   1.49239874  -2.03194010
 H  -7.22686574   0.83751925  -2.74496165
 C  -6.92950484   3.10583934  -0.14343224
 H  -7.55577844   3.65363757   0.54829653
 O  -8.81995265   2.11665407  -1.12595193
 C  -7.59595283   2.22902050  -1.10200917
 N  -0.45956135   0.27953355  -0.28515338
 H  -0.96814451  -0.59414093  -0.25745420
 C   0.96629104   0.22151891  -0.05462047
 H   1.30703168   1.25175836   0.04463868
 C   1.61825825  -0.41172163  -1.28010775
 C   1.31205232  -0.59123730   1.19003839
 H   1.13139662  -1.64685625   0.97614942
 H   2.38442970  -0.48797925   1.38345002
 O   1.24531364  -1.50128093  -1.70497673
 C   0.53998746  -0.19827177   2.45089962
 H  -0.51865952  -0.38823546   2.25459386
 C   0.96620073  -1.07478975   3.62066718
 H   2.02931872  -0.93919276   3.83005607
 H   0.40949356  -0.81933015   4.52659632
 H   0.79188900  -2.13131725   3.40788798
 C   0.71895918   1.27551589   2.79059072
 H   1.75537105   1.46638687   3.08327068
 H   0.48313519   1.92868010   1.95133466
 H   0.07213355   1.55514358   3.62860978
 N   2.59134171   0.32036330  -1.87981504
 H   3.06808724   1.01924252  -1.33661848
 C   3.32367445  -0.24343949  -2.99968248
 H   2.58499175  -0.73537611  -3.63175543
 C   4.32953944  -1.26258977  -2.47084364
 C   4.06494816   0.84678928  -3.76674759
 H   4.82548973   1.27025140  -3.10982160
 H   4.58717100   0.38733662  -4.60820831
 O   5.12956731  -0.96992325  -1.58718651
 C   3.14675476   1.95635131  -4.28482680
 H   3.73382432   2.68177253  -4.85419106
 H   2.66324201   2.47986093  -3.45685651
 C   2.07115560   1.40433630  -5.17377567
 O   0.88635702   1.42177314  -4.94689132
 O   2.58529488   0.83911306  -6.29269808
 N   4.27280452  -2.48433541  -3.04915580
 H   3.58268873  -2.67142095  -3.75703915
 C   5.15040680  -3.55243774  -2.62450765
 H   5.97339345  -3.08755192  -2.07939445
 C   5.74675496  -4.28676864  -3.80750061
 C   4.45998196  -4.56265981  -1.69628464
 H   5.20499206  -5.32055701  -1.44268848
 H   3.65340979  -5.06072156  -2.23854139
 O   6.83019811  -4.80824409  -3.81380485
 C   3.93662067  -3.90209671  -0.42820391
 H   3.06990602  -3.28336998  -0.65663718
 H   4.70263242  -3.23055536  -0.03756724
 C   3.56044426  -4.89255084   0.65855755
 H   3.28361566  -4.34498114   1.56328408
 H   4.41922985  -5.52523023   0.91030800
 N   2.41381091  -5.71407102   0.22366838
 H   2.37852722  -5.88577262  -0.77124775
 N   2.33909490  -6.88091486   2.24885153
 H   1.77331328  -7.42605383   2.87912905
 H   2.88114816  -6.14582119   2.67122528
 N   1.02865120  -7.56448063   0.42576719
 H   0.50304212  -8.14926383   1.05707388
 H   0.50055322  -7.23156342  -0.36998990
 C   1.92024617  -6.70569152   0.97959619
 O   4.89295378  -4.34651460  -4.85730202
 H   1.83258300   0.51681661  -6.80341773
 H   5.34028147  -4.84811423  -5.55072250
