21
conf-950
 N  -10.97545909   2.20291836   7.26384165
 H  -11.42831251   2.56713398   6.42276087
 H  -11.32209571   2.71954274   8.07068332
 H  -11.23818564   1.21914069   7.36425051
 C  -9.50085814   2.27883363   7.16909462
 H  -9.20002410   3.27992563   6.84859544
 C  -9.01432351   1.25582247   6.15187380
 C  -8.86047513   1.96127954   8.52578446
 H  -9.20058923   0.96169209   8.80408139
 H  -9.25242068   2.66813660   9.26098184
 O  -9.40055635   0.09001758   6.18442905
 C  -7.35518716   2.00079417   8.49222923
 C  -6.63480888   0.85348310   8.14647514
 H  -7.17724337  -0.06120032   7.92297363
 C  -6.65234185   3.17691125   8.75516469
 H  -7.19363456   4.07305572   9.04006288
 C  -5.24407641   0.88824946   8.06204146
 H  -4.70277419  -0.01773924   7.80215762
 C  -5.26125181   3.21135340   8.66781581
 H  -4.73832922   4.13787113   8.87607209
 C  -4.55510011   2.06666586   8.31492028
 H  -3.47354685   2.08871945   8.24869897
 N  -8.09454054   1.69052898   5.26294818
 H  -7.79726468   2.65519978   5.24257189
 C  -7.43912461   0.76288583   4.35690862
 H  -7.29383114  -0.17922786   4.89087058
 C  -6.08539804   1.38345535   4.02952103
 C  -8.28398289   0.50419420   3.11643231
 H  -7.78163531  -0.19174071   2.43995120
 H  -8.46837816   1.44159461   2.58571806
 H  -9.24052687   0.07940102   3.41751426
 O  -5.99015910   2.55473291   3.66871150
 N  -5.01783222   0.56068420   4.21776393
 H  -5.17402033  -0.43628989   4.20294450
 C  -3.67175593   0.97479354   3.87182381
 H  -3.69426109   2.06090575   3.79421413
 C  -3.30428908   0.36114584   2.52093580
 C  -2.67539015   0.53596856   4.93389994
 H  -1.67186671   0.89325573   4.69037084
 H  -2.65290159  -0.55430144   4.99665266
 H  -2.96355364   0.93365810   5.91067717
 O  -3.61140995  -0.78476811   2.23435938
 N  -2.58341537   1.17198040   1.70148772
 H  -2.14791466   2.00392902   2.06910655
 C  -2.10617069   0.72790049   0.41265617
 H  -2.31092176  -0.34003920   0.35547781
 C  -0.60585752   1.03202927   0.33904573
 C  -2.83439758   1.45626544  -0.73298074
 H  -2.63646125   2.52457452  -0.62135253
 H  -2.40334042   1.14123516  -1.68782052
 O  -0.14467523   2.04773905   0.84280942
 C  -4.30901884   1.20975093  -0.74148546
 C  -4.89012919   0.27669623  -1.62236583
 H  -4.25057470  -0.26875376  -2.30842366
 C  -5.15230639   1.90633268   0.14181681
 H  -4.71905540   2.61659539   0.84079807
 C  -6.24341813   0.04692532  -1.65298645
 H  -6.68392376  -0.66707561  -2.33722881
 C  -6.50833835   1.71048619   0.14582239
 H  -7.14486185   2.23107976   0.84649323
 O  -8.36235615   0.58241864  -0.76212492
 C  -7.14271692   0.76666308  -0.75851772
 N   0.14039229   0.12615155  -0.34765245
 H  -0.31564209  -0.55138169  -0.94245328
 C   1.51662418   0.38198648  -0.72404917
 H   1.71931544   1.44712256  -0.60206335
 C   1.65425547  -0.00830095  -2.19103491
 C   2.51509721  -0.42513699   0.11166247
 H   2.24202531  -1.47966375   0.02903910
 H   3.50349429  -0.32298557  -0.34163870
 O   0.91259423  -0.82201225  -2.71380265
 C   2.60098981  -0.04875663   1.59261646
 H   1.60998838  -0.16161876   2.03400818
 C   3.54658488  -1.01553775   2.29997776
 H   4.55031543  -0.94152470   1.87388171
 H   3.61120912  -0.79340528   3.36752517
 H   3.20392185  -2.04667742   2.19132873
 C   3.05935519   1.39311198   1.79785094
 H   4.04899357   1.54305275   1.35570987
 H   2.36692429   2.10772253   1.35273669
 H   3.13158660   1.61747680   2.86519463
 N   2.67996376   0.60166048  -2.86132703
 H   3.40809971   0.99601108  -2.28884413
 C   3.17071554   0.01182955  -4.09287991
 H   2.32197554  -0.48608249  -4.56726079
 C   4.23994596  -1.04035172  -3.74813563
 C   3.74158363   1.06755195  -5.03246713
 H   4.54315684   1.60765297  -4.53200418
 H   4.19383244   0.56876330  -5.89183598
 O   4.84750686  -1.04545391  -2.68777472
 C   2.67574335   2.04675215  -5.51658295
 H   2.20606649   2.56474664  -4.67696137
 H   1.87780893   1.53223636  -6.05450048
 C   3.24996174   3.11283065  -6.40894042
 O   4.41599356   3.40050293  -6.50470205
 O   2.28217585   3.76090707  -7.09774130
 N   4.48548817  -1.94472987  -4.72910547
 H   4.07514703  -1.83910655  -5.64438464
 C   5.59248163  -2.86928192  -4.61010272
 H   6.43594277  -2.35272452  -4.14713982
 C   5.99974930  -3.28532264  -6.00593014
 C   5.27108035  -4.09161067  -3.73265664
 H   5.06305502  -3.71243265  -2.73746171
 H   6.18500195  -4.68964315  -3.67853294
 O   5.38610363  -3.03559731  -7.01206908
 C   4.11661884  -4.93094970  -4.25451646
 H   4.29672130  -5.19286564  -5.30396616
 H   3.19785982  -4.34480514  -4.23704141
 C   3.89184390  -6.22680850  -3.48377279
 H   4.78188773  -6.86210726  -3.52963058
 H   3.08949495  -6.78599583  -3.96843163
 N   3.47893816  -6.04011299  -2.08087198
 H   2.57186034  -5.61820607  -1.94391754
 N   5.63216707  -6.08354579  -1.14937665
 H   6.19333200  -6.34628822  -0.35454236
 H   6.00140117  -6.34644560  -2.04955016
 N   3.74590861  -5.73292459   0.19603275
 H   4.33165561  -5.89420018   1.00213065
 H   2.78048637  -6.00696929   0.32621445
 C   4.29330655  -5.98536496  -1.02136877
 O   7.14092119  -3.99917919  -5.99811165
 H   2.73467210   4.43592851  -7.62072942
 H   7.32496223  -4.22449404  -6.91890352
