21
conf-578
 N  -7.13098084   0.39904206  -9.82547042
 H  -6.95619395  -0.58261113  -9.61033016
 H  -7.91298187   0.73305581  -9.25538210
 H  -7.37151905   0.50687098  -10.81380798
 C  -5.94823293   1.22905348  -9.54143700
 H  -5.05424205   0.74235544  -9.92855972
 C  -5.76930575   1.45266015  -8.01243689
 C  -6.12273863   2.57424816  -10.22548744
 H  -5.20522629   3.16898078  -10.16080615
 H  -6.92915823   3.10561233  -9.70439436
 O  -6.74915170   1.47265688  -7.22630052
 O  -6.47510127   2.30649309  -11.58212265
 H  -6.65704095   3.13917311  -12.02412401
 N  -4.46084784   1.66164586  -7.65350357
 H  -3.79560671   1.66215727  -8.40384780
 C  -4.03477553   2.35557241  -6.43696235
 H  -2.96667046   2.54128762  -6.57043004
 C  -4.09564777   1.52303766  -5.15025889
 C  -4.75198821   3.69703904  -6.23005693
 H  -4.47083140   4.12361392  -5.26904655
 H  -5.83168265   3.52830298  -6.25338135
 H  -4.48769933   4.39378589  -7.02901106
 O  -3.65421275   1.99381380  -4.10271128
 N  -4.60877160   0.28341263  -5.22557186
 H  -5.06558346   0.01840911  -6.07990718
 C  -4.97429432  -0.41256735  -4.00633638
 H  -5.10296037   0.35577392  -3.23694709
 C  -3.80288067  -1.32190596  -3.64332247
 C  -6.30540210  -1.15064265  -4.17705397
 H  -6.18432947  -1.89620220  -4.97799354
 O  -3.82784525  -2.54168095  -3.77716431
 C  -6.76747167  -1.81055222  -2.89181727
 H  -6.05552540  -2.56321024  -2.55295212
 H  -6.87383332  -1.04127888  -2.12406236
 H  -7.74102409  -2.27447413  -3.05513942
 O  -7.32580290  -0.21139880  -4.50180195
 H  -7.18443730   0.14117220  -5.39008194
 N  -2.69564488  -0.65835185  -3.23176548
 H  -2.69599247   0.35273798  -3.14721678
 C  -1.50849527  -1.37436160  -2.81680711
 H  -1.79718770  -2.41844965  -2.67027125
 C  -1.02569885  -0.75132364  -1.51176376
 C  -0.39402046  -1.33922566  -3.88945167
 H  -0.17157888  -0.28448747  -4.06691478
 O  -0.94453646   0.45962228  -1.37958427
 C   0.88173845  -2.04861073  -3.42280955
 H   0.66377297  -3.10261621  -3.21260769
 H   1.33441303  -1.61258265  -2.52718813
 H   1.63192364  -2.01547278  -4.21528454
 C  -0.88214847  -1.97637223  -5.18882312
 H  -1.17084286  -3.01421906  -5.00481295
 H  -1.74503980  -1.45248369  -5.60534113
 H  -0.08540576  -1.96436077  -5.93406628
 N  -0.69100284  -1.62391183  -0.51841229
 H  -0.53721110  -2.58085225  -0.79320419
 C   0.12509417  -1.14979919   0.59296816
 H  -0.24198398  -0.15484345   0.84152296
 C   1.59043997  -1.01216189   0.14265387
 C  -0.01939802  -2.05623255   1.83387262
 H  -1.03156735  -1.86913846   2.20726335
 O   2.24386383  -1.99550926  -0.25164659
 C   0.98235179  -1.67868633   2.92972001
 H   1.99064599  -1.74014196   2.49876193
 H   0.92991255  -2.45524703   3.70180250
 C   0.10815107  -3.54424655   1.51786013
 H   1.07652574  -3.74322786   1.05522077
 H  -0.68348163  -3.89074064   0.85457467
 H   0.03865240  -4.12178326   2.44041444
 C   0.74655983  -0.32953128   3.59328678
 H   1.42888180  -0.19408631   4.44266023
 H   0.91817264   0.50115954   2.90541158
 H  -0.27500503  -0.24213449   3.96803348
 N   2.08226835   0.26170072   0.19815818
 H   1.46393444   0.97999085   0.53346268
 C   3.50800627   0.50944369   0.32285467
 H   4.01397614  -0.44968356   0.21314926
 C   3.84227824   1.10677036   1.70864386
 C   4.02280362   1.46984228  -0.74511011
 H   3.73875992   1.10695085  -1.73129415
 H   3.58311262   2.45987504  -0.58169348
 O   3.04405456   1.83226137   2.34303383
 C   5.56351797   1.57267326  -0.70920727
 O   6.04140743   2.64593361  -1.10567551
 O   6.19370906   0.55929615  -0.32826416
 N   5.11593509   0.81404965   2.11864330
 H   5.73473683   0.49135157   1.36851312
 C   5.68762645   1.50082442   3.26916256
 H   4.87157620   1.90017896   3.86846906
 C   6.49498556   2.69662780   2.78996117
 C   6.45952028   0.52921282   4.14217859
 H   7.05367012   1.08123031   4.87197812
 H   7.15835446  -0.05539430   3.54397557
 O   7.72591270   2.72439904   2.79549965
 C   5.46137211  -0.34897001   4.84761763
 C   4.09742254  -0.35713758   4.83973237
 H   3.46002296   0.30503673   4.27417884
 N   5.80767244  -1.37022107   5.70019014
 H   6.74366606  -1.65451980   5.93985923
 C   4.66312672  -1.93400635   6.16089015
 H   4.66902015  -2.76079549   6.85199257
 N   3.60189983  -1.34584246   5.66865405
 N   5.74953211   3.72205157   2.31208938
 H   4.74157350   3.62390831   2.27685586
 C   6.39031049   4.85004797   1.65669963
 H   7.30204312   4.44356301   1.20601882
 C   6.78897033   5.89275406   2.69840006
 C   5.51290359   5.43281109   0.56112176
 H   5.12869738   4.59884648  -0.02727383
 H   4.65920761   5.93523028   1.02017912
 O   6.22132309   6.96657565   2.82970245
 C   6.24199121   6.40943712  -0.37103508
 H   6.55278008   7.27336076   0.22592646
 C   7.49179434   5.77501720  -0.98344171
 H   7.25468515   4.79244131  -1.39892098
 H   7.88463117   6.40308888  -1.78607805
 H   8.28508990   5.65662654  -0.24397861
 C   5.28017720   6.88730762  -1.45576736
 H   4.97389663   6.04850639  -2.08614837
 H   5.75369026   7.63645492  -2.09384397
 H   4.38472238   7.33527032  -1.01998400
 N   7.82766739   5.52666801   3.49809831
 H   8.30148181   4.65531306   3.30004866
 C   8.58569656   6.57122581   4.15524514
 H   7.86982970   7.28542855   4.57651585
 C   9.39961667   7.34382498   3.12830082
 C   9.47299418   6.00089918   5.26157200
 H   10.06550384   6.81300117   5.67864460
 H   10.17596447   5.29300003   4.81455867
 O   9.40505057   7.12119621   1.94400206
 C   8.64880523   5.33360603   6.34910697
 H   7.98697785   6.07815648   6.79227076
 H   8.01173355   4.55629527   5.92064157
 C   9.48685843   4.69893447   7.44949848
 H   8.84204328   4.23279258   8.20091824
 H   10.10049379   3.89477714   7.03747566
 N   10.42962365   5.61166725   8.12513823
 H   11.30526439   5.75014400   7.64192852
 N   8.73273134   6.78000510   9.21591894
 H   8.48258272   7.40072921   9.96859874
 H   8.13747311   5.97660725   9.09954692
 N   10.93145297   7.59906548   9.22096543
 H   10.67736037   8.22754209   9.96871637
 H   11.90780899   7.33572770   9.20538558
 C   10.02803604   6.65055422   8.86910406
 O   10.10980730   8.33558413   3.69871989
 H   10.57967989   8.78472954   2.98587188
