21
conf-256
 N  -1.05336869   3.02066640  -10.37657588
 H  -0.09159014   2.69389737  -10.29139440
 H  -1.53030934   2.45490434  -11.08294890
 H  -1.07527881   4.00597500  -10.64275142
 C  -1.80225290   2.83596484  -9.12308555
 H  -1.15562418   3.03500861  -8.26236499
 C  -2.31527794   1.39733377  -9.07894810
 C  -2.97490094   3.80955344  -9.09997499
 H  -3.53406992   3.73275795  -8.16108049
 H  -3.64915766   3.56994359  -9.92172543
 O  -2.49467948   0.75707158  -10.10425653
 O  -2.53720945   5.13969106  -9.34228661
 H  -2.07766706   5.45856809  -8.56362890
 N  -2.60182333   0.90992442  -7.85303030
 H  -2.48888576   1.44951341  -7.00867744
 C  -3.14575095  -0.41733050  -7.67511524
 H  -3.94986725  -0.56834100  -8.40026015
 C  -3.71210970  -0.44896778  -6.25393488
 C  -2.09343134  -1.50650108  -7.88663182
 H  -2.53556100  -2.49617911  -7.76314163
 H  -1.27783933  -1.40054798  -7.16657769
 H  -1.68191462  -1.41616516  -8.89037266
 O  -3.39272085   0.39413882  -5.42180505
 N  -4.52926744  -1.48427411  -5.96499823
 H  -4.89045843  -2.05071205  -6.71313088
 C  -5.17654865  -1.59742733  -4.66280613
 H  -5.43016174  -0.58246985  -4.34269277
 C  -4.18163079  -2.22925297  -3.68281858
 C  -6.46048611  -2.42558171  -4.79378353
 H  -6.17650664  -3.43742137  -5.08981391
 O  -4.19295154  -3.42310518  -3.40367739
 C  -7.26325196  -2.45109418  -3.50523515
 H  -6.69013876  -2.89344319  -2.69052198
 H  -7.53986460  -1.43041366  -3.22968133
 H  -8.17465531  -3.03293136  -3.65649749
 O  -7.26657826  -1.92504160  -5.85310031
 H  -7.61165102  -1.07421360  -5.57227826
 N  -3.27090461  -1.37903287  -3.15494288
 H  -3.18658713  -0.43412383  -3.51255089
 C  -2.18261109  -1.88321527  -2.34153257
 H  -2.57223417  -2.73698348  -1.78236070
 C  -1.76699084  -0.77362181  -1.38281296
 C  -0.99920652  -2.40785195  -3.20411884
 H  -1.46913153  -3.16607085  -3.83606023
 O  -1.72307100   0.39356621  -1.73314174
 C  -0.39433598  -1.33180248  -4.11258087
 H   0.27386065  -0.65851018  -3.55995552
 H  -1.16837415  -0.72781653  -4.58847486
 H   0.19953983  -1.81528785  -4.89362239
 C   0.07876909  -3.11371252  -2.37587209
 H   0.63734137  -2.43231403  -1.71703527
 H  -0.35832855  -3.90189323  -1.75653821
 H   0.80134503  -3.58332147  -3.04686702
 N  -1.45194767  -1.18033155  -0.11377466
 H  -1.28097553  -2.16856522  -0.00648142
 C  -0.56749534  -0.33793010   0.69884713
 H  -0.83909486   0.69498680   0.48270677
 C   0.88119203  -0.59756044   0.25535163
 C  -0.69803388  -0.59399930   2.20568914
 H  -0.49341702  -1.66150021   2.35361578
 O   1.39016008  -1.71544964   0.47962877
 C  -2.10926113  -0.27870530   2.70076934
 H  -2.84266631  -0.72201944   2.02622442
 H  -2.25363346   0.80585218   2.64150385
 C   0.35853906   0.22240610   2.95767615
 H   0.20787108   1.29027671   2.77406064
 H   1.36094185  -0.04020701   2.60681817
 H   0.30987594   0.04350549   4.03439047
 C  -2.38159297  -0.76578191   4.11721891
 H  -3.40601147  -0.53547412   4.41592525
 H  -2.24730900  -1.84886804   4.18886201
 H  -1.71167779  -0.30170651   4.84306738
 N   1.45181285   0.42034839  -0.43808225
 H   0.99017634   1.31059678  -0.35539094
 C   2.87273655   0.48899922  -0.74419706
 H   3.19433072  -0.53007412  -0.97568078
 C   3.61862239   1.02500531   0.47865324
 C   3.09791503   1.39498425  -1.95404841
 H   2.76706381   2.40987919  -1.73950083
 H   4.15347118   1.40419021  -2.23123050
 O   3.16218649   1.91480199   1.17835044
 C   2.29571649   0.79632968  -3.14205559
 O   1.37967615   1.50159696  -3.60502324
 O   2.67187827  -0.32541366  -3.51306673
 N   4.80618216   0.40986904   0.73843290
 H   5.33076758  -0.01472265  -0.01155249
 C   5.55051125   0.75236149   1.92550187
 H   4.92133520   1.42353363   2.50605213
 C   6.84739313   1.43511961   1.53092952
 C   5.89655185  -0.48873544   2.77039962
 H   6.49999667  -0.17878457   3.62592205
 H   6.53175641  -1.15001266   2.16608783
 O   7.47872427   1.10476368   0.53555264
 C   4.70033246  -1.23922057   3.26551505
 C   4.30247667  -1.63209865   4.51040573
 H   4.78675754  -1.44456319   5.45552347
 N   3.74591718  -1.74862562   2.42738010
 H   3.61573817  -1.53246822   1.45145965
 C   2.82716584  -2.40194889   3.16841236
 H   1.98430823  -2.87649481   2.69357000
 N   3.12868279  -2.35460246   4.45086189
 N   7.30129443   2.38587430   2.40349428
 H   6.88077055   2.36027482   3.31664633
 C   8.73270575   2.70173858   2.40041976
 H   8.99629799   2.92338018   1.36683078
 C   9.48914684   1.46957560   2.88005730
 C   9.00507887   3.89556539   3.30340947
 H   8.41772400   4.73590684   2.92572348
 H   8.62354384   3.65573028   4.29886489
 O   9.19525073   0.90943149   3.93437937
 C   10.47032622   4.32633060   3.42014645
 H   11.03971437   3.48728929   3.83754429
 C   11.07715980   4.69327936   2.06965863
 H   10.49685216   5.49021027   1.59384235
 H   12.10017803   5.05547798   2.19915617
 H   11.11816472   3.84358460   1.38499416
 C   10.57293360   5.50009760   4.39037251
 H   10.02175285   6.35966432   4.00227420
 H   11.61358862   5.79878447   4.53362567
 H   10.15965242   5.24057027   5.36719653
 N   10.45350897   1.02958520   2.04223505
 H   10.62133332   1.51749807   1.18164995
 C   11.20374570  -0.16447040   2.33163452
 H   10.97697442  -0.41295896   3.37399247
 C   12.69718178   0.07535357   2.28192765
 C   10.79911994  -1.35071983   1.45264925
 H   11.43309922  -2.19309353   1.71621379
 H   10.99361394  -1.12279745   0.40334412
 O   13.52014301  -0.80202917   2.29843952
 C   9.33119033  -1.70053769   1.63810545
 H   9.13799274  -1.88387414   2.70152330
 H   8.70873226  -0.85376192   1.34986142
 C   8.90389638  -2.90283771   0.82394141
 H   7.81675593  -3.04061380   0.89680631
 H   9.14354312  -2.72707582  -0.22625702
 N   9.61060452  -4.11332930   1.29171947
 H   9.72122010  -4.16871186   2.29311967
 N   8.93825832  -5.38845056  -0.54671459
 H   8.60409433  -6.29018194  -0.84985372
 H   8.38573521  -4.60427674  -0.85762645
 N   9.94000427  -6.41497767   1.31083313
 H   10.15750654  -7.19408451   0.70524354
 H   10.64338296  -6.25857452   2.02256037
 C   9.48156300  -5.30002677   0.68420986
 O   13.02964964   1.38572007   2.26614489
 H   13.99573129   1.41178973   2.27345645
