21
conf-291
 N  -8.80602593  -2.98873815  -9.09012962
 H  -8.44562757  -2.95990639  -10.04429977
 H  -8.28861407  -3.69306926  -8.55922894
 H  -9.79946107  -3.22341579  -9.09630955
 C  -8.60474123  -1.69938446  -8.39459343
 H  -8.87122314  -0.86716590  -9.04889504
 C  -7.14952822  -1.61551823  -7.97758438
 C  -9.48916196  -1.67964502  -7.16558866
 H  -9.38001183  -0.74293877  -6.60514921
 H  -9.18985906  -2.51616827  -6.52200872
 O  -6.56661451  -2.62769959  -7.58355730
 O  -10.82922852  -1.85477210  -7.62447229
 H  -11.39013109  -2.02788204  -6.86427549
 N  -6.55272097  -0.41124613  -8.03698340
 H  -7.06142877   0.38224261  -8.39192732
 C  -5.11762502  -0.24884303  -7.82816474
 H  -4.65748863  -1.18568666  -8.16175266
 C  -4.83266609  -0.07672390  -6.33451757
 C  -4.60883957   0.92997024  -8.63567115
 H  -3.54523980   1.08299775  -8.45371742
 H  -5.13651350   1.83948373  -8.34397449
 H  -4.76554796   0.74407569  -9.70022497
 O  -4.36524859   0.96022398  -5.85689757
 N  -5.13641167  -1.12981938  -5.54984242
 H  -5.50536625  -1.98791757  -5.94615619
 C  -4.93361044  -1.05976778  -4.11789314
 H  -5.10574023  -0.02130795  -3.82051170
 C  -3.49272128  -1.43680719  -3.76377623
 C  -5.91453862  -1.97619675  -3.38786485
 H  -5.65403374  -1.95642402  -2.32559931
 O  -3.21955623  -2.39479101  -3.04698697
 C  -7.35342627  -1.55509614  -3.57591791
 H  -7.51935963  -0.54819363  -3.18594368
 H  -7.61718392  -1.56680059  -4.63877219
 H  -8.01292492  -2.24937468  -3.05510051
 O  -5.78304662  -3.30169521  -3.88578864
 H  -4.91720501  -3.60551060  -3.59181676
 N  -2.53545603  -0.65218894  -4.31830975
 H  -2.81314252   0.23048019  -4.73358778
 C  -1.16021648  -0.80923683  -3.88168547
 H  -1.07741336  -1.82454196  -3.49178645
 C  -0.90509952   0.20140339  -2.77547603
 C  -0.14575425  -0.62305155  -5.02282416
 H  -0.41047620   0.30265682  -5.53778682
 O  -0.90681508   1.40279734  -3.00507482
 C   1.29224537  -0.48908222  -4.49579114
 H   1.50158868  -1.26143823  -3.74707748
 H   1.49709623   0.48864173  -4.04518619
 H   1.99935786  -0.61336603  -5.32191721
 C  -0.24675067  -1.79831436  -5.99282204
 H   0.07654179  -2.71379312  -5.49101391
 H  -1.26539416  -1.94243986  -6.35418118
 H   0.40262288  -1.63467145  -6.85529056
 N  -0.70926643  -0.32194596  -1.53348088
 H  -0.48721807  -1.30528226  -1.50597210
 C  -0.06051271   0.52798782  -0.53846556
 H  -0.48201805   1.51692444  -0.69962291
 C   1.43899292   0.57432587  -0.81962503
 C  -0.37458670   0.09330651   0.90421470
 H  -1.46643956   0.12881102   0.97407836
 O   2.11178044  -0.44580099  -0.96124264
 C   0.20355003   1.06203338   1.94296356
 H   1.29496293   1.08460135   1.82613595
 H   0.01352926   0.62961567   2.92990044
 C   0.09727865  -1.32048985   1.22593468
 H   1.18744729  -1.34784034   1.26569153
 H  -0.23446264  -2.04450520   0.48049825
 H  -0.29130101  -1.62807837   2.19812002
 C  -0.36560018   2.47269706   1.91019859
 H   0.06710047   3.08136882   2.70728889
 H  -0.14833027   2.98353324   0.96755603
 H  -1.45040237   2.46319174   2.04417090
 N   1.95575797   1.82873412  -0.92614247
 H   1.38254337   2.60945441  -0.65302282
 C   3.37988885   2.08050671  -0.88685597
 H   3.88241810   1.11263984  -0.92333139
 C   3.68962320   2.80085140   0.43292154
 C   3.80839330   2.91652254  -2.09339413
 H   3.32365321   3.89261857  -2.08716659
 H   4.89229658   3.04351484  -2.09428746
 O   2.87539333   3.55006519   0.95730835
 C   3.41334511   2.11763244  -3.36560274
 O   3.99677041   1.02842085  -3.49758077
 O   2.59221767   2.65503204  -4.13339060
 N   4.92291454   2.59039645   0.94499508
 H   5.63793888   2.07290763   0.45820122
 C   5.36999832   3.27622853   2.13372754
 H   5.08863977   4.33109280   2.06817155
 C   6.89324480   3.13723911   2.15211721
 C   4.70103186   2.71060723   3.40528940
 H   3.62241501   2.77714450   3.25623114
 H   4.95890158   3.35126168   4.25444887
 O   7.49773431   2.48842978   1.31724157
 C   5.05900576   1.28369773   3.69150785
 C   4.33463490   0.12937543   3.62979768
 H   3.29114864   0.01157833   3.37482187
 N   6.32091031   0.88735259   4.06751980
 H   7.11536890   1.49383432   4.17769311
 C   6.30312987  -0.46121696   4.21031116
 H   7.18050540  -1.01037026   4.50433048
 N   5.11533166  -0.96240015   3.95397481
 N   7.51379269   3.71017661   3.20696874
 H   7.03058259   4.36963332   3.79548043
 C   8.96112185   3.68445156   3.31715309
 H   9.29221810   2.69957620   2.97999470
 C   9.28137893   3.90542503   4.78984204
 C   9.61927561   4.75683402   2.44577706
 H   9.29829069   4.58562904   1.41794767
 H   9.22649402   5.72796286   2.75247798
 O   8.81022068   4.85650836   5.40163687
 C   11.14767644   4.79839025   2.49514623
 H   11.44932766   4.99368607   3.52836291
 C   11.76592348   3.47930892   2.04031622
 H   11.42388731   3.23193254   1.03037358
 H   12.85623141   3.55317775   2.01617374
 H   11.51062689   2.64780265   2.69926825
 C   11.64553368   5.95419899   1.62956066
 H   11.35538042   5.79702681   0.58811351
 H   12.73361197   6.03761014   1.67162268
 H   11.22177018   6.90350088   1.96402797
 N   10.10861294   2.99134792   5.35608509
 H   10.49987094   2.26352211   4.78148727
 C   10.63441529   3.18837347   6.68933785
 H   10.37160876   4.21395635   6.97374451
 C   12.14545128   3.12872565   6.73029533
 C   10.02830899   2.24006246   7.72489148
 H   10.55342339   2.40554669   8.66681879
 H   10.20955407   1.20323487   7.43535863
 O   12.79095058   3.07759517   7.74416458
 C   8.53868967   2.47659215   7.92133902
 H   8.36914086   3.52814866   8.16804385
 H   8.00159279   2.27767915   6.99465125
 C   7.96234408   1.59255035   9.01218610
 H   8.11109043   0.54439096   8.73963168
 H   8.49336063   1.76361342   9.95638402
 N   6.52068432   1.85957311   9.16889493
 H   6.25012949   2.81872390   9.01548237
 N   6.22026086   0.06506313   10.63074528
 H   5.74752348  -0.26252233   11.45820960
 H   7.21884442  -0.07127709   10.62912475
 N   4.49458150   1.61999380   10.28539822
 H   3.85446318   0.92396075   10.63988151
 H   4.08609039   2.20228688   9.56503540
 C   5.75613319   1.18293394   10.03713284
 O   12.71743679   3.18880901   5.50644420
 H   13.67162411   3.17822916   5.65577080
