21
conf-772
 N  -9.96159232  -1.40694166  -8.39115102
 H  -10.12065642  -1.95067530  -9.23931451
 H  -9.71848295  -2.04359622  -7.62841322
 H  -10.79899859  -0.87691123  -8.14497311
 C  -8.82849080  -0.47753728  -8.54170702
 H  -8.83077833  -0.03326395  -9.54100212
 C  -7.54444780  -1.25914819  -8.31007996
 C  -8.96514433   0.62322823  -7.49825897
 H  -8.15311498   1.35428067  -7.57633100
 H  -8.92356756   0.17073215  -6.50674815
 O  -7.53284937  -2.21791928  -7.53961696
 O  -10.24100205   1.24359224  -7.57858996
 H  -10.26489016   1.79878449  -8.35996113
 N  -6.44706000  -0.83650323  -8.97028889
 H  -6.47223907   0.02229484  -9.49093907
 C  -5.14687874  -1.47715932  -8.81179283
 H  -5.32433190  -2.55486298  -8.78835784
 C  -4.53625848  -1.04321444  -7.47383268
 C  -4.26036778  -1.09919236  -9.98160877
 H  -3.27491429  -1.55702281  -9.87745508
 H  -4.13287516  -0.01647132  -10.02299629
 H  -4.71245513  -1.44761648  -10.91246136
 O  -3.75134213  -0.10368279  -7.38452384
 N  -4.93874049  -1.75309418  -6.39281684
 H  -5.77484198  -2.32103991  -6.47842155
 C  -4.54918225  -1.33643988  -5.06275065
 H  -4.82230471  -0.28286985  -4.91978350
 C  -3.03741726  -1.49192153  -4.90226245
 C  -5.29652481  -2.20336629  -4.03203336
 H  -4.97238193  -3.23327104  -4.18725683
 O  -2.47023842  -2.56121511  -5.08938209
 C  -5.04064357  -1.77469843  -2.60121001
 H  -3.97865969  -1.83515135  -2.34871469
 H  -5.37703158  -0.74287222  -2.46306348
 H  -5.60152191  -2.41937249  -1.92275120
 O  -6.69019855  -2.18765000  -4.30000233
 H  -7.01150034  -1.30034432  -4.12275674
 N  -2.38157942  -0.36856500  -4.52931046
 H  -2.88021820   0.48386993  -4.33631925
 C  -0.95592359  -0.36701262  -4.28204257
 H  -0.66184783  -1.40753403  -4.12500628
 C  -0.71103316   0.46312038  -3.02689688
 C  -0.13089762   0.17316169  -5.47465823
 H  -0.44733633   1.20643782  -5.63683879
 O  -1.29330210   1.52385733  -2.83498884
 C   1.36935854   0.16455410  -5.17530575
 H   1.70665017  -0.85232749  -4.93647788
 H   1.63515213   0.81909296  -4.34249671
 H   1.92174305   0.50552350  -6.05400185
 C  -0.41918261  -0.64610654  -6.73261742
 H  -0.26916376  -1.70715754  -6.52568240
 H  -1.43778407  -0.50721628  -7.08126403
 H   0.25304101  -0.34596614  -7.53806345
 N   0.21173165  -0.05078336  -2.16771551
 H   0.78143490  -0.81850594  -2.49224066
 C   0.85759527   0.76757530  -1.16314778
 H   0.60237094   1.81083510  -1.36977656
 C   2.36810885   0.55750167  -1.27598883
 C   0.38742357   0.44342947   0.27968773
 H   1.06647778   0.99765138   0.94540144
 O   2.85680534  -0.40712064  -1.84584606
 C   0.52892932  -1.04722512   0.60649486
 H   1.46171304  -1.42806259   0.17258723
 H  -0.28701321  -1.58304079   0.11735176
 C  -1.04397661   0.93960898   0.47235099
 H  -1.69073392   0.53268844  -0.30482376
 H  -1.08265120   2.03128633   0.40660279
 H  -1.44873725   0.63936754   1.44187926
 C   0.51284490  -1.33692603   2.10216234
 H   0.53741700  -2.41061077   2.29418932
 H   1.38610725  -0.89239814   2.59102999
 H  -0.37739721  -0.92974381   2.59045688
 N   3.12488100   1.49178663  -0.64993990
 H   2.67239313   2.26386036  -0.18808335
 C   4.49352225   1.15857091  -0.24633549
 H   4.53449000   0.10401075   0.04288010
 C   4.76677521   2.06084160   0.96844689
 C   5.50235670   1.37848200  -1.35641119
 H   5.17802403   0.82890746  -2.23668798
 H   5.60402522   2.43435476  -1.60988955
 O   4.66318989   3.30975907   0.85319003
 C   6.87686040   0.80954176  -0.93758583
 O   6.88084969  -0.10268419  -0.08964616
 O   7.83586622   1.26974860  -1.57956852
 N   4.99571969   1.38745161   2.12899421
 H   5.32212358   0.43374801   2.07379180
 C   5.13884605   2.11847878   3.37355283
 H   4.95241007   3.16833200   3.18028240
 C   6.61385497   2.00934775   3.77251379
 C   4.18512237   1.62021482   4.43298938
 H   4.43066494   2.12550834   5.37312897
 H   4.35680833   0.55995656   4.61486409
 O   7.12275122   0.90476716   4.06168976
 C   2.74442374   1.86686090   4.05237401
 C   1.58412421   1.33990416   4.53843247
 H   1.46764313   0.56229440   5.28184150
 N   2.34231957   2.79985011   3.12842103
 H   2.93650531   3.35634007   2.53168856
 C   0.98711673   2.80933077   3.11398117
 H   0.41252860   3.47253896   2.48643131
 N   0.48763010   1.92557283   3.94394199
 N   7.30632166   3.17925205   3.68974361
 H   6.83395941   3.94370596   3.23698226
 C   8.75911849   3.13878874   3.60593889
 H   9.06356366   2.09049590   3.58587173
 C   9.34570448   3.67701683   4.90348554
 C   9.25685301   3.78599174   2.33412654
 H   9.00838828   4.84852786   2.32683574
 H   10.34653770   3.72359772   2.31938627
 O   10.09575230   4.63612240   4.96931861
 C   8.69656253   3.07500283   1.08994019
 H   7.60744911   3.24638140   1.04346798
 C   9.34293118   3.69337119  -0.14977951
 H   10.41419358   3.47256215  -0.15596848
 H   8.90438102   3.29819005  -1.06381489
 H   9.22430639   4.77970620  -0.15028350
 C   8.96729768   1.56490688   1.16521382
 H   10.02813137   1.42221763   1.40381124
 H   8.74177926   1.02787960   0.24901418
 H   8.39789050   1.08394534   1.96233680
 N   8.91564076   2.99292345   6.00654787
 H   8.41973521   2.12373335   5.87411053
 C   9.50893302   3.25784924   7.29972086
 H   9.95168951   4.25271092   7.24653163
 C   10.63345975   2.29041516   7.61044153
 C   8.44954963   3.22380072   8.40655663
 H   8.04719236   2.21194935   8.49552758
 H   7.62958966   3.86802053   8.08248593
 O   11.61915156   2.56303548   8.24856582
 C   8.96520809   3.70962002   9.75434631
 H   9.76237810   3.05887080   10.11368284
 H   9.39796262   4.70561154   9.63232437
 C   7.85449561   3.77991328   10.78643282
 H   7.06770662   4.44591176   10.42337919
 H   7.40752389   2.78741163   10.92291265
 N   8.38336836   4.29747411   12.06206188
 H   9.33132561   4.02167427   12.26812677
 N   6.26024290   4.46518540   13.01828279
 H   5.71562923   4.34776489   13.85798636
 H   5.88256683   4.01451714   12.19973134
 N   8.18363208   4.76177789   14.33217794
 H   7.60011080   5.24254709   15.00166195
 H   9.12363084   5.13492675   14.28732296
 C   7.60305151   4.49570618   13.13375095
 O   10.39556774   1.05229734   7.12678539
 H   11.14620380   0.50648652   7.39118093
