21
conf-472
 N  -10.27162523  -2.80317720  -4.02254181
 H  -10.90031506  -3.26973660  -4.67880818
 H  -9.39565255  -3.33490549  -4.01313505
 H  -10.68352684  -2.80250424  -3.09319987
 C  -9.91293677  -1.44739068  -4.47047450
 H  -10.76331855  -0.95997183  -4.95343637
 C  -8.75378135  -1.57259350  -5.45774732
 C  -9.47836857  -0.58698942  -3.28575818
 H  -8.62281009  -1.07353328  -2.80452842
 H  -10.28620055  -0.52080924  -2.55107301
 O  -8.00683927  -2.54576056  -5.43244891
 O  -9.05537977   0.70529630  -3.71002970
 H  -9.78074242   1.32643712  -3.63829285
 N  -8.57274210  -0.53137477  -6.29987160
 H  -9.02778494   0.33269322  -6.04248869
 C  -7.31258809  -0.37082422  -7.01206440
 H  -6.97051624  -1.38143107  -7.24461731
 C  -6.30387777   0.30090992  -6.06804080
 C  -7.53232732   0.44587072  -8.27120577
 H  -6.59413268   0.55818842  -8.81861852
 H  -7.90190019   1.44194957  -8.01940100
 H  -8.26114981  -0.05665267  -8.90871440
 O  -5.95493257   1.46692328  -6.19006256
 N  -5.88673018  -0.47838057  -5.03074881
 H  -6.15474437  -1.45498541  -4.98578754
 C  -4.79793548  -0.06127820  -4.18003123
 H  -4.41467763   0.88487415  -4.56432750
 C  -3.72048275  -1.14012205  -4.18689712
 C  -5.30454756   0.20099516  -2.74651834
 H  -5.79200365  -0.72307680  -2.40059478
 O  -4.00405158  -2.32843346  -4.15044522
 C  -4.20671996   0.60969596  -1.78452306
 H  -3.47833935  -0.19160015  -1.63340045
 H  -3.68460873   1.48960809  -2.17546570
 H  -4.65226331   0.87002393  -0.82408356
 O  -6.23664506   1.27481861  -2.78087073
 H  -6.99608543   0.99357883  -3.31165450
 N  -2.44351986  -0.67217886  -4.20318873
 H  -2.29327946   0.30874566  -4.01490128
 C  -1.32234366  -1.49627451  -3.78413131
 H  -1.71689973  -2.42027102  -3.34671383
 C  -0.59054039  -0.67596463  -2.71896543
 C  -0.42696340  -1.89107873  -4.97388884
 H  -0.14428176  -0.96314676  -5.47704944
 O  -0.68702916   0.53898481  -2.67320977
 C   0.84247053  -2.62973890  -4.55385425
 H   0.58509717  -3.50405925  -3.94534353
 H   1.52561150  -2.00512466  -3.98666847
 H   1.37217145  -2.98494823  -5.44141481
 C  -1.22870457  -2.76713625  -5.93773878
 H  -1.44630832  -3.72607289  -5.45664287
 H  -2.17766426  -2.30972004  -6.21349557
 H  -0.65589522  -2.96059322  -6.84645926
 N   0.14163523  -1.38362266  -1.81680757
 H   0.40994227  -2.31869993  -2.07291693
 C   1.01452755  -0.67507435  -0.89379118
 H   0.45080671   0.19292866  -0.55775067
 C   2.26378263  -0.18677367  -1.62625092
 C   1.35047459  -1.56066508   0.32736827
 H   0.37550795  -1.88410126   0.70619761
 O   2.87722267  -0.89639882  -2.41442261
 C   2.06156382  -0.80070182   1.45074638
 H   3.01800125  -0.42787452   1.07317666
 H   2.31836869  -1.53495065   2.22138951
 C   2.17550249  -2.79034320  -0.04099561
 H   3.22190216  -2.50827740  -0.19128904
 H   1.82026581  -3.26557975  -0.95905351
 H   2.13605218  -3.52200286   0.76804460
 C   1.25386740   0.31881051   2.08958697
 H   1.81426278   0.77059397   2.91100831
 H   1.02624024   1.12028417   1.37759994
 H   0.30578006  -0.05317249   2.49025824
 N   2.63768935   1.09657060  -1.34198857
 H   2.24319668   1.50665611  -0.50980142
 C   3.97018829   1.55685252  -1.69961607
 H   4.27418746   1.00254924  -2.58491215
 C   5.00457604   1.26934713  -0.57808163
 C   4.00520575   3.04575908  -1.98968015
 H   3.19550847   3.31875694  -2.66351823
 H   3.89720751   3.60658752  -1.05655864
 O   4.70305312   1.20268146   0.62542745
 C   5.32136501   3.46640359  -2.68585383
 O   5.60723443   4.66724080  -2.58689745
 O   5.95150502   2.57930955  -3.31102854
 N   6.26862095   1.11989444  -1.06721301
 H   6.42104957   1.45615669  -2.02112322
 C   7.33429715   0.67152415  -0.19378341
 H   6.85649601   0.29153304   0.71000037
 C   8.17888455   1.86801592   0.21628215
 C   8.12270203  -0.46347790  -0.81971792
 H   8.99334186  -0.68260158  -0.19860561
 H   8.50986877  -0.16794643  -1.79555636
 O   9.30551530   2.08072976  -0.22173892
 C   7.24654624  -1.67941921  -0.92067621
 C   5.95297892  -1.93063410  -0.54266492
 H   5.27740855  -1.23334715  -0.05463723
 N   7.67564118  -2.86158084  -1.48049985
 H   8.58695433  -3.03271627  -1.86999159
 C   6.65070345  -3.74770172  -1.41571011
 H   6.73724935  -4.75443613  -1.78801583
 N   5.59031831  -3.22108792  -0.85372822
 N   7.55268096   2.72649901   1.07050659
 H   6.67434664   2.45595384   1.49368086
 C   8.30264810   3.75752613   1.75809919
 H   9.27178035   3.81352945   1.26282997
 C   8.48067612   3.33232159   3.21665439
 C   7.59314437   5.10814067   1.70541475
 H   6.74254452   5.08177837   2.38975515
 H   8.28231842   5.87184742   2.07920030
 O   7.55359341   2.85643612   3.85818297
 C   7.10157122   5.50546655   0.31328721
 H   6.33389919   4.78530484   0.02718861
 C   6.46406212   6.88995664   0.36961360
 H   7.19765830   7.63245341   0.69417820
 H   6.08623915   7.19266159  -0.61121214
 H   5.62797689   6.90638255   1.07221368
 C   8.21750386   5.45901269  -0.72678103
 H   8.97447654   6.21678727  -0.49899198
 H   7.81062695   5.66210441  -1.71890433
 H   8.71111034   4.48810024  -0.75436023
 N   9.71335081   3.54890268   3.74388667
 H   10.39045343   4.09986947   3.23680442
 C   9.95823703   3.37569137   5.16025004
 H   8.99497811   3.39453875   5.67891527
 C   10.79947448   4.53777914   5.63995833
 C   10.66206692   2.05176637   5.49334658
 H   10.83986727   2.03143789   6.56594499
 H   11.63950815   2.02496543   5.00650811
 O   11.41489503   5.29020783   4.92809580
 C   9.84403864   0.83954658   5.07356310
 H   8.82613772   0.92929390   5.45705665
 H   9.75998816   0.81020423   3.98622225
 C   10.46483510  -0.46130770   5.54252874
 H   9.94019124  -1.31664221   5.10058593
 H   11.50265758  -0.50302863   5.20585000
 N   10.42774988  -0.53472800   7.01997720
 H   9.57228784  -0.18768980   7.42839780
 N   11.87656873  -2.36519605   7.10422644
 H   12.06226262  -3.25456271   7.54153139
 H   11.87854979  -2.37660200   6.09602658
 N   10.68929712  -1.70074275   9.01590545
 H   11.37731131  -2.20125898   9.56111876
 H   10.33511781  -0.87669523   9.48612792
 C   10.99212822  -1.54154700   7.70099705
 O   10.80657309   4.62464339   6.98476161
 H   11.38021472   5.37106477   7.20005314
