21
conf-731
 N  -8.46119565  -7.55875328  -4.77092624
 H  -8.60410285  -7.04148162  -5.63898891
 H  -7.80844602  -8.33040453  -4.94249588
 H  -9.34953574  -7.96402093  -4.47576738
 C  -7.88973993  -6.70957941  -3.69463536
 H  -8.64825179  -5.98939496  -3.37091629
 C  -6.68241612  -5.93579167  -4.21474480
 C  -7.46368879  -7.59253063  -2.53331951
 H  -8.34510889  -8.05941746  -2.09146997
 H  -6.96236399  -6.98763473  -1.76897151
 O  -5.53398021  -6.38628031  -4.13627628
 O  -6.62878529  -8.64875723  -2.96745445
 H  -5.83714014  -8.21833742  -3.31427688
 N  -6.94231347  -4.76032907  -4.81309545
 H  -7.85278827  -4.33792912  -4.73332825
 C  -5.86651242  -3.91213065  -5.31480837
 H  -5.08001916  -4.59941792  -5.63803093
 C  -5.32091930  -3.05715314  -4.16596437
 C  -6.36679553  -3.07303066  -6.47378863
 H  -5.57258480  -2.41807191  -6.83404397
 H  -7.20697207  -2.45076658  -6.16267697
 H  -6.68524207  -3.72709327  -7.28722288
 O  -5.44737516  -1.83029428  -4.12413048
 N  -4.70719624  -3.73712170  -3.17431032
 H  -4.62264946  -4.74377997  -3.23043674
 C  -4.30106639  -3.05838437  -1.95969348
 H  -5.00575401  -2.23033653  -1.83191708
 C  -2.89783785  -2.49113265  -2.16576661
 C  -4.41919950  -3.98173424  -0.74432358
 H  -3.71104968  -4.80333819  -0.85448168
 O  -1.88375779  -2.99236587  -1.66567441
 C  -4.20229578  -3.24895001   0.56763397
 H  -3.18966323  -2.85403440   0.63978846
 H  -4.90480601  -2.41574140   0.64295765
 H  -4.37162050  -3.92820324   1.40421972
 O  -5.70326597  -4.59872264  -0.72670844
 H  -6.36219056  -3.90176682  -0.66470366
 N  -2.83577475  -1.40803299  -2.96635766
 H  -3.68484381  -1.08285653  -3.40968713
 C  -1.56716108  -0.77899353  -3.29186386
 H  -0.82586452  -1.58569650  -3.28503860
 C  -1.24440712   0.20764150  -2.16726084
 C  -1.54688236  -0.10498744  -4.67106983
 H  -2.12685336   0.81404578  -4.59234045
 O  -1.26982311   1.43064474  -2.30830509
 C  -0.10206472   0.24116067  -5.06886601
 H   0.47771972  -0.68315291  -5.13759533
 H   0.41229395   0.91484413  -4.37282445
 H  -0.09188987   0.71930153  -6.05223021
 C  -2.15732015  -0.99656526  -5.74990157
 H  -1.60343729  -1.93635365  -5.81904780
 H  -3.20727840  -1.22514188  -5.55108572
 H  -2.10271955  -0.49652167  -6.71822956
 N  -0.96617284  -0.36214013  -0.97564258
 H  -0.90853782  -1.36825995  -0.93203865
 C  -0.46621953   0.44782888   0.11614427
 H  -0.98379727   1.40225168   0.01476507
 C   1.02280540   0.70660599  -0.07876685
 C  -0.85319184  -0.12134078   1.48507542
 H  -1.94612085  -0.00541177   1.50467347
 O   1.89882340   0.06738481   0.48871113
 C  -0.26342719   0.70929857   2.63205439
 H   0.79195239   0.44604724   2.74430495
 H  -0.76117430   0.39492210   3.55468333
 C  -0.52754187  -1.59868734   1.67619727
 H   0.54792348  -1.75776269   1.61031806
 H  -1.01820546  -2.22669723   0.93209452
 H  -0.86643426  -1.92347886   2.66127675
 C  -0.40599905   2.21569795   2.45684456
 H  -0.07662917   2.73863515   3.35659371
 H   0.19742407   2.58999701   1.62574991
 H  -1.44680076   2.49647974   2.27181243
 N   1.30965679   1.69044792  -0.96365232
 H   0.56005593   2.11942905  -1.49142162
 C   2.67785799   2.12040400  -1.15868235
 H   3.27171267   1.24557835  -1.44719896
 C   3.23849714   2.66442366   0.16091609
 C   2.75155956   3.17265802  -2.25931018
 H   2.15921476   4.04799824  -2.00314131
 H   3.78647922   3.47315739  -2.42871853
 O   2.58660921   3.38508913   0.90628276
 C   2.23963122   2.54466698  -3.58626131
 O   2.83462444   1.52831832  -3.96703267
 O   1.31522696   3.16431632  -4.14256921
 N   4.49824080   2.26302243   0.46319366
 H   5.09475381   1.92799355  -0.27135473
 C   5.15662497   2.79357463   1.63670783
 H   4.42144872   2.78446635   2.43998187
 C   5.62010394   4.22717178   1.36460143
 C   6.36697641   1.92803620   1.98957773
 H   6.93499170   2.39418306   2.79733605
 H   7.02780839   1.90516243   1.12352388
 O   6.18958856   4.52360658   0.32187381
 C   5.99732497   0.53315846   2.40050675
 C   4.90144936  -0.25523375   2.19340725
 H   3.99525723  -0.00264360   1.66329654
 N   6.86019850  -0.25885133   3.12567175
 H   7.76904604   0.01799943   3.45386255
 C   6.26023517  -1.46259292   3.31583973
 H   6.73449148  -2.26428372   3.85511742
 N   5.06970765  -1.50017557   2.76726344
 N   5.37052382   5.11409144   2.36280356
 H   5.15408092   4.78014905   3.28935041
 C   5.93532926   6.44549169   2.35043441
 H   6.69345731   6.47865084   1.56524271
 C   6.57968954   6.66047842   3.72235752
 C   4.88491115   7.52464314   2.08715512
 H   4.13688159   7.47544767   2.88220981
 H   5.36319604   8.50415528   2.16257694
 O   6.24634307   6.01249480   4.69949921
 C   4.17797003   7.42614507   0.73236665
 H   3.76102681   6.42153281   0.63892745
 C   3.02708225   8.42660478   0.68220887
 H   3.40480546   9.44701736   0.78818901
 H   2.48997565   8.35908073  -0.26673866
 H   2.31302447   8.24120392   1.48748714
 C   5.14352267   7.66011358  -0.42621151
 H   5.57317743   8.66418732  -0.36126947
 H   4.61819962   7.57722792  -1.38068560
 H   5.95696697   6.93375838  -0.42918795
 N   7.50117997   7.65241390   3.77879382
 H   7.66966136   8.24211788   2.98186446
 C   8.09517673   8.01906461   5.05030273
 H   7.30969493   8.02362276   5.80915060
 C   8.67240911   9.41609364   5.01465271
 C   9.15571276   7.01217449   5.52456138
 H   8.64840937   6.05204129   5.62272393
 H   9.47341179   7.31645190   6.52125423
 O   9.00146998   10.02865224   5.99792367
 C   10.35779705   6.87106891   4.60704858
 H   10.02844956   6.60835280   3.59844427
 H   10.89191167   7.81955753   4.52287856
 C   11.30429884   5.79693139   5.10169094
 H   10.74742207   4.86677792   5.22822123
 H   12.09891650   5.61479243   4.36947374
 N   11.88002464   6.19803943   6.40452331
 H   12.12410691   7.17567085   6.46543743
 N   12.73536422   4.06935736   6.84101348
 H   13.52623303   3.55275226   7.19373201
 H   12.41205178   3.78200199   5.93009744
 N   13.38232468   5.90227329   8.15600826
 H   13.65534375   5.23750023   8.86632109
 H   13.02900045   6.76974288   8.54107936
 C   12.67113141   5.38724468   7.11929524
 O   8.81310806   9.91152811   3.76385947
 H   9.18608342   10.79705622   3.85756952
