21
conf-684
 N  -9.31426816  -5.56187879  -5.11115972
 H  -9.24417722  -6.50070792  -5.50668244
 H  -8.97952064  -5.61761186  -4.15125023
 H  -10.29508649  -5.28435254  -5.09902416
 C  -8.48183719  -4.60904894  -5.86687398
 H  -8.84216936  -4.53492718  -6.89553000
 C  -7.02795204  -5.08619673  -5.87189362
 C  -8.52613882  -3.20450887  -5.26111564
 H  -7.90791014  -3.16989227  -4.35459430
 H  -9.55870650  -2.96421289  -4.99142679
 O  -6.62481333  -5.94072485  -5.08162708
 O  -8.07389793  -2.27811860  -6.24169148
 H  -7.43738754  -1.68516068  -5.83134310
 N  -6.21074146  -4.42501857  -6.74419279
 H  -6.63586483  -3.58132364  -7.11326032
 C  -4.82770994  -4.19292221  -6.31083051
 H  -4.43221734  -5.14544212  -5.96358441
 C  -4.92320959  -3.18678496  -5.12595945
 C  -3.99966744  -3.60865891  -7.43061282
 H  -2.96389945  -3.49724154  -7.10234196
 H  -4.37420684  -2.61795677  -7.68976390
 H  -4.03935684  -4.25520057  -8.30703302
 O  -5.34524715  -2.01690475  -5.32945932
 N  -4.66826265  -3.74193091  -3.90919454
 H  -4.36302784  -4.69793865  -3.87944201
 C  -4.97180678  -3.06264727  -2.66348036
 H  -5.69221992  -2.27914061  -2.90983287
 C  -3.67767434  -2.43029072  -2.15656518
 C  -5.62371296  -4.02532962  -1.67799208
 H  -4.89188023  -4.80271700  -1.41767161
 O  -3.03060463  -2.88821932  -1.21834128
 C  -6.13185408  -3.33741657  -0.42735246
 H  -5.31150494  -2.86793039   0.12006433
 H  -6.85937068  -2.57199643  -0.70036613
 H  -6.61953926  -4.06770433   0.21854267
 O  -6.77450807  -4.61146036  -2.28855032
 H  -6.48277841  -5.15861614  -3.02631015
 N  -3.25593218  -1.34950538  -2.85146910
 H  -3.76771427  -1.06261367  -3.67118407
 C  -1.99248726  -0.70689780  -2.52624228
 H  -1.23699223  -1.49777839  -2.44559909
 C  -2.09226467  -0.04957232  -1.15042616
 C  -1.56953512   0.26427727  -3.65168383
 H  -1.70665352  -0.32545300  -4.56367677
 O  -3.01759462   0.68194759  -0.82662232
 C  -2.45343721   1.50825697  -3.73068569
 H  -2.27721853   2.15235931  -2.86877271
 H  -3.51315515   1.24175537  -3.74795527
 H  -2.22082970   2.07507964  -4.63478831
 C  -0.09640786   0.65573956  -3.56694395
 H   0.11458712   1.30487304  -2.70888741
 H   0.54656530  -0.22682042  -3.49764506
 H   0.19741256   1.20850863  -4.46422458
 N  -1.07642920  -0.35194100  -0.29975836
 H  -0.34045075  -0.98226143  -0.57205765
 C  -0.97112177   0.27028426   1.01449230
 H  -1.63009156   1.13818452   0.99206262
 C   0.49250014   0.69189084   1.14591505
 C  -1.42170434  -0.64812812   2.16212763
 H  -0.72913140  -1.49422112   2.18353029
 O   1.37490153  -0.15264966   1.35247075
 C  -2.83208534  -1.19123117   1.90227514
 H  -2.84008234  -1.72853084   0.95825500
 H  -3.50855911  -0.33848700   1.78494414
 C  -1.36921037   0.09488166   3.49803173
 H  -2.02430892   0.97093041   3.46007425
 H  -0.36068175   0.42816760   3.75043777
 H  -1.70481122  -0.54897122   4.31517439
 C  -3.34685437  -2.12768991   2.99364080
 H  -4.26718101  -2.61583495   2.66566252
 H  -2.61700678  -2.91147687   3.21515324
 H  -3.56801660  -1.59586244   3.91856202
 N   0.75532191   2.00395049   0.95236460
 H   0.01208318   2.61832384   0.65182817
 C   2.12091423   2.42444895   0.66022737
 H   2.63569357   1.55096268   0.24044343
 C   2.80804425   2.84537383   1.96484390
 C   2.12419122   3.56568580  -0.35040436
 H   1.59642163   4.42676887   0.05484447
 H   3.15055021   3.83619266  -0.61058945
 O   2.82726430   4.01595412   2.34332648
 C   1.42108563   3.02726659  -1.61185319
 O   0.21246585   3.30918994  -1.71031156
 O   2.13604970   2.35868825  -2.37260863
 N   3.35948771   1.83936199   2.68655340
 H   3.39367574   0.92249511   2.26953692
 C   4.27783599   2.14072985   3.77784096
 H   3.81517660   2.94236643   4.35871560
 C   5.61474322   2.61584483   3.20614297
 C   4.51333523   0.89151232   4.62549739
 H   5.28032227   1.08192965   5.37742404
 H   4.90130118   0.10999850   3.97257184
 O   6.28033983   1.89969855   2.46318271
 C   3.26626287   0.43250651   5.31818627
 C   2.01354251   0.13148669   4.87744767
 H   1.65792264   0.13946896   3.85903537
 N   3.20742722   0.24836466   6.68023907
 H   3.96620372   0.38254378   7.32568454
 C   1.94829225  -0.14839377   6.99001610
 H   1.64850298  -0.36521196   8.00113465
 N   1.19119167  -0.23339016   5.92565194
 N   5.97300112   3.86983886   3.55951688
 H   5.46543143   4.37303812   4.26843188
 C   7.15362555   4.51724567   3.03808714
 H   7.74473291   3.74583231   2.54638467
 C   7.92174301   5.12895203   4.20558972
 C   6.81316678   5.62593205   2.03547817
 H   6.26680093   6.40480113   2.57504869
 H   7.74406411   6.07722997   1.68570912
 O   7.36012416   5.55815810   5.19471625
 C   5.97736209   5.18046289   0.83394694
 H   5.06891179   4.71439714   1.22142819
 C   5.56182787   6.39156431   0.00642300
 H   6.43942402   6.89961918  -0.40054443
 H   4.92933619   6.08288438  -0.82971023
 H   4.99895519   7.10740402   0.60851485
 C   6.70910079   4.16357523  -0.03638533
 H   7.61174138   4.61162333  -0.46207304
 H   6.06280586   3.85120260  -0.86086336
 H   6.99504544   3.27147232   0.52043453
 N   9.27697725   5.19180296   4.03751581
 H   9.61821322   5.07095667   3.09950261
 C   10.04914644   6.10059507   4.86570537
 H   9.53897509   6.17089801   5.82954761
 C   10.04198747   7.48103439   4.23926787
 C   11.48423800   5.60998361   5.05935460
 H   12.04607075   6.38950778   5.57224814
 H   11.94136746   5.48043016   4.07393136
 O   9.65076499   7.73788337   3.12936962
 C   11.53623640   4.31590257   5.85541373
 H   11.11297672   4.49502524   6.84434696
 H   10.92572313   3.54456877   5.38280845
 C   12.94380231   3.75875572   6.01390477
 H   12.92492442   2.82550426   6.58517043
 H   13.35623172   3.50605429   5.03450102
 N   13.91732526   4.68075279   6.63071344
 H   14.33138249   5.34718488   5.99519324
 N   12.93893138   4.52256755   8.74061942
 H   13.04440250   4.65691718   9.73321431
 H   12.53806745   3.64224121   8.46192441
 N   14.57289398   6.14997832   8.30825837
 H   14.66855497   6.29369878   9.30262732
 H   15.40273410   6.36078316   7.77003808
 C   13.81805579   5.10020370   7.89892279
 O   10.54719011   8.40809496   5.07623576
 H   10.52031953   9.24605856   4.59847231
