74
76
N         -2.96384        3.99570       -3.92020
H         -3.90127        3.64625       -3.70701
H         -2.64278        3.56164       -4.83326
H         -2.32334        3.63369       -3.17270
C         -2.95917        5.48002       -4.03272
H         -3.66660        5.77314       -4.81384
H         -3.25765        5.90708       -3.07399
C         -1.53464        5.91245       -4.37748
O         -0.66669        5.06147       -4.55952
N         -1.29326        7.23871       -4.41567
H         -2.05299        7.89610       -4.30183
C          0.06914        7.74490       -4.63267
H          0.08823        8.79608       -4.33085
H          0.34720        7.66274       -5.68364
C          1.05467        6.92596       -3.78101
O          2.00878        6.32168       -4.27766
N          0.75429        6.92870       -2.45860
H         -0.13635        7.35274       -2.22303
C          1.09970        5.83752       -1.57147
H          1.82311        5.17904       -2.05506
H          1.56521        6.20986       -0.65152
C         -0.17954        5.05758       -1.21528
O         -1.29882        5.46617       -1.54561
N          0.02715        3.94312       -0.48033
H          0.97875        3.57439       -0.44072
C         -1.06786        3.04013       -0.15988
H         -0.91421        2.61827        0.83817
H         -1.99611        3.61256       -0.16538
C         -1.13454        1.95701       -1.23917
O         -1.59559        2.20098       -2.36761
N         -0.58188        0.78426       -0.90417
H         -0.19859        0.64516        0.02660
C         -0.22278       -0.27496       -1.83388
H         -0.06381        0.14330       -2.82895
H         -1.00947       -1.03796       -1.89310
C          1.05864       -0.90820       -1.27751
O          1.25746       -0.90460       -0.05588
N          1.91348       -1.43430       -2.17906
H          1.84152       -1.08182       -3.13008
C          3.24799       -1.88132       -1.76390
H          3.15668       -2.40644       -0.81062
H          3.65200       -2.55307       -2.52093
C          4.16528       -0.65323       -1.66276
O          4.99739       -0.38524       -2.52643
N          3.89941        0.15977       -0.60015
H          3.10237       -0.08155       -0.01683
C          4.37972        1.53702       -0.58131
H          4.23386        1.95266        0.41621
H          5.44470        1.54749       -0.82732
C          3.57146        2.37207       -1.58379
O          2.58758        3.04393       -1.24749
N          3.98097        2.27342       -2.86844
H          4.63319        1.51839       -3.07659
C          3.16715        2.79542       -3.94509
H          3.77428        2.81392       -4.85615
H          2.87440        3.82721       -3.73207
C          1.94538        1.90824       -4.23237
O          1.98315        0.68365       -4.10121
N          0.86919        2.56425       -4.71850
H          0.83400        3.57722       -4.68626
C         -0.30190        1.87467       -5.24286
H         -1.06165        1.73067       -4.47325
H          0.01751        0.88996       -5.60098
C         -0.88347        2.71148       -6.37949
O         -2.04118        3.15328       -6.35108
N         -0.01712        2.97840       -7.38515
H          0.93333        2.66736       -7.22108
C         -0.12008        4.21182       -8.15411
H         -1.16819        4.43286       -8.35056
H          0.39577        4.09272       -9.11192
C          0.48612        5.39236       -7.38430
O          0.05760        6.52269       -7.47247
O          1.51704        5.00655       -6.61977
H          1.77246        5.70812       -5.96164
