21
conf-705
 N  -5.00620705   4.86004841  -0.57258229
 H  -4.49411937   5.19814826   0.23889937
 H  -5.75540403   4.28982534  -0.19619618
 C  -4.09330996   4.03631292  -1.35844379
 H  -4.67280052   3.51899321  -2.12564718
 C  -3.33181641   3.04430981  -0.47091704
 C  -3.10675909   4.98247624  -2.05837002
 H  -3.69836898   5.75305196  -2.55169953
 H  -2.52305686   5.46845103  -1.27369999
 O  -2.92336790   3.40156506   0.62075949
 C  -2.20118499   4.30280888  -3.05055509
 C  -2.56554720   4.14674745  -4.39121484
 H  -3.49278961   4.58314049  -4.74779213
 C  -0.98635817   3.76711075  -2.62658775
 H  -0.69470613   3.84673520  -1.58721930
 C  -1.74675248   3.44763996  -5.27521949
 H  -2.05301817   3.33807996  -6.30898534
 C  -0.17002536   3.06372675  -3.50791192
 H   0.75805937   2.64813100  -3.13941820
 C  -0.54603722   2.89660043  -4.83726195
 H   0.09233754   2.35234878  -5.52243367
 N  -3.07973542   1.78634385  -0.94317807
 C  -2.39959975   0.82946176  -0.05523430
 H  -2.72912506   1.01198077   0.97352455
 C  -0.87406247   0.98791120  -0.09046722
 C  -2.86900252  -0.55308855  -0.56884195
 H  -2.11055446  -0.96950901  -1.23948159
 H  -3.04031737  -1.25450273   0.24800692
 O  -0.30008789   2.05151243  -0.26008331
 C  -4.12170983  -0.26226581  -1.38842932
 H  -4.32546978  -1.02634618  -2.13908701
 H  -4.99946531  -0.16547383  -0.74747645
 C  -3.77890931   1.08749131  -2.01769416
 H  -4.66225694   1.63311068  -2.35524328
 H  -3.10173264   0.94341744  -2.86687844
 N  -0.16002407  -0.15096006   0.13110902
 H  -0.64353086  -1.02306075   0.24721182
 C   1.28293969  -0.14217603   0.00703363
 H   1.67658663   0.69002478   0.59333996
 C   1.73100409   0.11137987  -1.41581148
 C   1.89581840  -1.45860716   0.48440996
 H   1.53980248  -1.65081462   1.49785216
 H   2.97878132  -1.32252968   0.55092904
 O   2.79551046   0.46853942  -1.79696594
 C   1.59921700  -2.64620653  -0.41379318
 H   0.51909494  -2.75504255  -0.55035843
 H   2.02518394  -2.46189249  -1.40573165
 C   2.16449552  -3.94019987   0.14384155
 H   1.75785901  -4.11657992   1.14479152
 H   3.24907824  -3.84644557   0.25854243
 C   1.86262873  -5.14644114  -0.73280042
 H   0.78063059  -5.24737150  -0.84781405
 H   2.27164949  -4.97815324  -1.73189450
 N   2.38116330  -6.41899797  -0.24735650
 H   2.01118910  -6.61563304   0.67584057
 H   3.38792705  -6.36518309  -0.14057391
 O   0.71281710  -0.18181263  -2.40842578
 H   0.18039851  -1.00945998  -2.31199537
 H   1.13724620  -0.24505802  -3.28221967
