21
conf-497
 N  -3.32522428  -2.03868843   3.72554476
 H  -3.28583730  -2.16876364   4.72864329
 H  -2.53639851  -2.53944309   3.32497526
 C  -3.17240584  -0.63227110   3.40313740
 H  -4.17778780  -0.19051321   3.36380197
 C  -2.55515183  -0.51701747   2.00226691
 C  -2.34286400   0.18683155   4.41748696
 H  -2.17166419   1.18111171   3.99354992
 H  -2.95900608   0.32173321   5.31244393
 O  -1.95941367  -1.46891035   1.51017915
 C  -1.03998195  -0.44777202   4.81787597
 C  -0.90077079  -1.03809311   6.07642974
 H  -1.73891435  -1.01541936   6.76618040
 C   0.04686608  -0.48823301   3.94490337
 H  -0.04430217  -0.02846880   2.97154984
 C   0.29067654  -1.65030861   6.46117582
 H   0.37179299  -2.10437098   7.44174395
 C   1.24491609  -1.08503527   4.33490299
 H   2.07939645  -1.08396480   3.65427492
 C   1.37152142  -1.67402948   5.58455453
 H   2.30327371  -2.14862899   5.87136130
 N  -2.64075497   0.67799603   1.35947591
 C  -2.44017342   0.72641688  -0.12002047
 H  -2.82681514  -0.21032651  -0.53805977
 C  -0.96382911   0.86298930  -0.47245679
 C  -3.26666787   1.93378447  -0.58991844
 H  -2.61587455   2.80644596  -0.67532258
 H  -3.72109423   1.75145168  -1.56350405
 O  -0.49324477   1.88147243  -1.00752021
 C  -4.27792048   2.14608916   0.53449545
 H  -4.68509289   3.15650385   0.56012668
 H  -5.10822398   1.44167564   0.45611130
 C  -3.44300970   1.82943575   1.77289254
 H  -4.02919425   1.62784696   2.66452957
 H  -2.77528810   2.67348012   1.98652852
 N  -0.19837737  -0.18880617  -0.17688984
 H  -0.64270466  -0.92981463   0.36162943
 C   1.25804906  -0.10558875  -0.17683361
 H   1.53896618   0.88295035   0.21055802
 C   1.83842012  -0.13113396  -1.56654984
 C   1.85355954  -1.17638056   0.73644642
 H   1.51473084  -0.93011671   1.75143819
 H   2.94105909  -1.07810179   0.72216465
 O   2.89798685  -0.55221232  -1.89923664
 C   1.45279688  -2.60662747   0.42324481
 H   0.36275582  -2.69710296   0.38739442
 H   1.81641841  -2.88344560  -0.56821839
 C   1.98703186  -3.58279396   1.46015926
 H   1.60238008  -3.31575107   2.45270111
 H   3.07606892  -3.51122029   1.52042577
 C   1.60280759  -5.01790325   1.16887162
 H   0.50868727  -5.08420046   1.07274797
 H   2.03134364  -5.31661159   0.20716237
 N   2.14638495  -5.89767152   2.20235521
 H   1.93305899  -6.86446201   1.99125910
 H   1.70177552  -5.69817379   3.09054950
 O   1.00522972   0.51689674  -2.54412218
 H   0.44128562   1.24108684  -2.06661671
 H   1.59957657   0.87401278  -3.23543028
