21
conf-879
 N  -1.01495462   3.47922828  -3.49518601
 H  -1.02399370   4.47358869  -3.67890096
 H  -1.48159323   3.00774920  -4.26261977
 C  -1.73986186   3.17405694  -2.27750641
 H  -1.07338282   3.34177549  -1.42744042
 C  -2.13099060   1.69781908  -2.34995599
 C  -2.99475567   4.05141661  -2.07028869
 H  -3.39567748   3.88036639  -1.06688868
 H  -2.66336667   5.09395632  -2.10895917
 O  -2.27818810   1.12620300  -3.41164991
 C  -4.07064198   3.79913323  -3.08863587
 C  -4.03177931   4.40260646  -4.34350964
 H  -3.22564865   5.09234813  -4.57382437
 C  -5.11437776   2.91676647  -2.80933382
 H  -5.16433909   2.44647545  -1.83137722
 C  -4.99508495   4.11791461  -5.30881032
 H  -4.93763468   4.59551879  -6.27903027
 C  -6.07854476   2.62289877  -3.76931956
 H  -6.87481184   1.92776893  -3.53025046
 C  -6.02117373   3.22253650  -5.02378998
 H  -6.77189392   2.99607794  -5.77239613
 N  -2.36810913   1.05695878  -1.17403800
 C  -2.21761215   1.58806884   0.16239145
 H  -2.61945135   2.59763655   0.26463356
 C  -0.76323142   1.68416361   0.63958070
 C  -3.01089200   0.57666385   1.01462933
 H  -2.64917255   0.53450167   2.04248390
 H  -4.05702201   0.88981890   1.03191305
 O  -0.47846369   2.37379439   1.60634464
 C  -2.86886563  -0.73729320   0.24882658
 H  -1.89214952  -1.19201832   0.44396420
 H  -3.63250475  -1.46895662   0.50801759
 C  -2.95110692  -0.29332761  -1.21133560
 H  -3.98547058  -0.24813450  -1.56756703
 H  -2.40001923  -0.92152932  -1.91187336
 N   0.14074846   0.92961065  -0.03274373
 H  -0.14992459   0.41554298  -0.84534762
 C   1.53180734   0.92094140   0.36791176
 H   1.64670919   1.72705042   1.09411530
 C   2.41255815   1.21777260  -0.81860092
 C   1.96920873  -0.39847950   1.00136813
 H   3.05099798  -0.36452389   1.13569513
 H   1.75792403  -1.21458926   0.30782433
 O   2.17608482   1.07071549  -1.97069543
 C   1.28807847  -0.65194052   2.33855416
 H   1.50964350   0.18082996   3.01842534
 H   0.20246215  -0.64770684   2.19808202
 C   1.68655081  -1.96657659   2.99168411
 H   1.49072978  -2.79571822   2.30146627
 H   1.05849496  -2.14133351   3.87009739
 C   3.13788146  -2.02711947   3.42079580
 H   3.78794827  -1.88361130   2.54607009
 H   3.34399107  -1.20359567   4.11235404
 N   3.39208341  -3.28745556   4.11754063
 H   4.34459841  -3.31269394   4.45987445
 H   3.31072646  -4.05786495   3.46429108
 O   3.74796417   1.64865867  -0.43655949
 H   3.82622397   2.39779774   0.19285458
 H   4.19363856   1.89476659  -1.27167722
