21
conf-503
 N  -1.06199124  -1.27709229  -3.66878954
 H  -1.50011642  -2.17032353  -3.86544455
 H  -0.13187047  -1.48713671  -3.32897951
 C  -1.82827408  -0.59383029  -2.64252441
 H  -1.23237580   0.24427934  -2.27219181
 C  -2.17865376  -1.51555076  -1.47451391
 C  -3.11313778   0.00364854  -3.24040431
 H  -3.58614588   0.64931061  -2.49339198
 H  -2.81015201   0.63561648  -4.07833421
 O  -2.31441251  -2.71597655  -1.60868520
 C  -4.09215716  -1.03918290  -3.70262128
 C  -3.98813942  -1.59724154  -4.97452798
 H  -3.19224668  -1.25646040  -5.63134290
 C  -5.10437694  -1.49231585  -2.85674654
 H  -5.19435801  -1.06606672  -1.86433289
 C  -4.86550898  -2.59288540  -5.39614279
 H  -4.76098470  -3.01375271  -6.38886663
 C  -5.98314471  -2.49089737  -3.26827501
 H  -6.75726325  -2.83080537  -2.59006592
 C  -5.86803245  -3.04361920  -4.54064609
 H  -6.55268763  -3.81931648  -4.86343637
 N  -2.39062205  -0.91515619  -0.26919680
 C  -2.07721660   0.46085462   0.07953356
 H  -2.58692146   1.17379062  -0.56958862
 C  -0.58925918   0.75238533  -0.08069869
 C  -2.56354605   0.56054853   1.53801830
 H  -1.98953581   1.28139968   2.11964429
 H  -3.60492509   0.88697719   1.52675993
 O  -0.19469262   1.84447351  -0.50096834
 C  -2.46363242  -0.86690213   2.07129731
 H  -1.43497962  -1.09164698   2.36481393
 H  -3.10186908  -1.04345009   2.93628076
 C  -2.85558472  -1.72098109   0.86628989
 H  -3.93914028  -1.87525328   0.80930642
 H  -2.39000876  -2.70752148   0.83878253
 N   0.24990322  -0.24673150   0.25740405
 H  -0.15428370  -1.16210962   0.34877884
 C   1.69350290  -0.17803266   0.00809255
 H   2.04253019   0.78489781   0.38359849
 C   1.88949732  -0.18110231  -1.48364277
 C   2.40518385  -1.31094722   0.73193436
 H   2.05003419  -2.26564773   0.34178707
 H   2.09713843  -1.25826878   1.77851433
 O   1.98038251  -1.09555204  -2.24279375
 C   3.92146151  -1.24096552   0.65014116
 H   4.24432068  -1.37818246  -0.38379801
 H   4.25245684  -0.24292862   0.95249622
 C   4.59208773  -2.28274559   1.53195100
 H   4.27753570  -3.28461962   1.22218235
 H   4.26964107  -2.15854697   2.56926140
 C   6.10391640  -2.20955081   1.47925501
 H   6.43267210  -2.29552773   0.43265581
 H   6.42562916  -1.22700666   1.83909770
 N   6.68491157  -3.22592810   2.35488873
 H   7.69364412  -3.14256725   2.37048814
 H   6.48498234  -4.14903329   1.98832397
 O   1.81315242   1.16774988  -1.99835343
 H   1.06744634   1.65681466  -1.48720030
 H   1.59286446   1.09081724  -2.94823154
