21
conf-641
 N  -2.66763159  -4.68344750  -2.88305144
 H  -2.68602114  -4.72425884  -3.89598493
 H  -1.68529802  -4.57041324  -2.64800453
 C  -3.37032782  -3.49796736  -2.43005905
 H  -4.37348782  -3.49802108  -2.86881369
 C  -2.65338635  -2.20844644  -2.83945744
 C  -3.53337368  -3.56411948  -0.90510308
 H  -3.93330688  -4.55362299  -0.68269041
 H  -2.54463541  -3.49775858  -0.44033185
 O  -1.46709921  -2.20709872  -3.15289751
 C  -4.45712945  -2.49359174  -0.39327484
 C  -3.96020284  -1.35429613   0.23036925
 H  -2.89238003  -1.27764407   0.41598453
 C  -5.82342138  -2.56817346  -0.65112838
 H  -6.20702806  -3.45326210  -1.15352497
 C  -4.79834164  -0.29327363   0.55469353
 H  -4.37832403   0.59654132   1.01041922
 C  -6.67024875  -1.52065783  -0.31462908
 H  -7.72916387  -1.59769994  -0.53260341
 C  -6.15855360  -0.37155709   0.28246726
 H  -6.81592372   0.44980017   0.53971691
 N  -3.40429254  -1.07705604  -2.85602623
 H  -4.26339276  -1.06452142  -2.31192046
 C  -2.76787279   0.20574832  -3.11346700
 H  -2.00118691   0.01281917  -3.86809810
 C  -2.12137012   0.75197347  -1.83812165
 C  -3.79850346   1.17730551  -3.66309131
 H  -3.34948881   2.16271682  -3.79190127
 H  -4.61564909   1.27213235  -2.93375844
 O  -2.65533293   1.62518599  -1.15293550
 O  -4.26766776   0.76423487  -4.93135264
 H  -4.56402088  -0.14397524  -4.83251023
 N  -0.93916823   0.20266379  -1.49824372
 H  -0.54975173  -0.57742247  -2.01311485
 C  -0.20487674   0.66993538  -0.35084248
 H  -0.29057320   1.75973693  -0.30762749
 C   1.26198985   0.26890419  -0.53072897
 C  -0.75200028   0.12939814   0.95813437
 H  -1.78489543   0.47877584   1.06856352
 H  -0.15954679   0.52956174   1.78901335
 O   1.62036882  -0.53899469  -1.36553851
 O  -0.70666245  -1.29199609   0.90870346
 H  -0.61504311  -1.62431111   1.80456723
 N   2.11730896   0.83103834   0.35141748
 H   1.83399344   1.60227045   0.93382317
 C   3.54232607   0.67239785   0.17747122
 H   3.74855686  -0.39588733   0.09869940
 C   4.22888776   1.24262963   1.41997653
 C   4.09242457   1.30935363  -1.11346505
 H   5.16328283   1.10878862  -1.19045135
 H   3.58632313   0.82776642  -1.95314388
 O   3.68699172   2.04328333   2.15952541
 C   3.91023563   2.79681961  -1.25582297
 O   4.78984876   3.56664464  -1.55557529
 O   2.63520604   3.20127435  -1.05683509
 N   5.49578402   0.80000651   1.62127482
 H   5.91499478   0.17030491   0.95765200
 C   6.32720332   1.39896999   2.63486894
 H   5.80397182   2.30501591   2.96008023
 C   7.65929904   1.87018990   2.08562927
 C   6.53571537   0.50969657   3.86360708
 H   7.23203142   1.02209794   4.52315145
 H   7.00874866  -0.42955879   3.57018376
 O   8.56193362   2.27073055   2.77232836
 C   5.23017787   0.22437222   4.58909426
 H   4.55803544  -0.33566446   3.93524816
 H   4.72210532   1.16408589   4.81954338
 C   5.44138050  -0.57036770   5.86142216
 H   4.47927560  -0.88249046   6.28541022
 H   6.00621892  -1.47472607   5.62453654
 N   6.20617347   0.23860276   6.83646854
 H   5.92980944   1.20994452   6.87187477
 N   6.44517093  -1.56265155   8.31287040
 H   6.98342269  -1.95271996   9.06998823
 H   6.23926191  -2.18922295   7.55261310
 N   7.02930411   0.61372943   8.96735771
 H   7.42132155   1.48390322   8.63380537
 H   7.50454587   0.22052160   9.76521335
 C   6.57271089  -0.25268322   8.03107082
 O   7.71933485   1.84121325   0.73734107
 H   8.58700850   2.19417947   0.49509691
 H   2.63039779   4.15613346  -1.19937527
