21
conf-962
 N  -5.47140770  -4.72772326  -4.34940958
 H  -5.32254543  -4.76375251  -5.35114825
 H  -4.81061135  -5.40057729  -3.97463016
 C  -5.11658508  -3.40653652  -3.85658948
 H  -5.69070163  -2.66962859  -4.43054736
 C  -3.62811075  -3.08928401  -4.03745900
 C  -5.53207887  -3.25176299  -2.38112232
 H  -5.43459685  -2.19997475  -2.09251124
 H  -6.59089495  -3.51539231  -2.31842480
 O  -2.82231139  -3.91936472  -4.42474622
 C  -4.73294395  -4.10758140  -1.43876547
 C  -5.03541269  -5.45438690  -1.26568086
 H  -5.87788101  -5.87390615  -1.80623029
 C  -3.64641438  -3.57453212  -0.73828091
 H  -3.41046240  -2.52081891  -0.84676892
 C  -4.26242112  -6.26363538  -0.43638098
 H  -4.51564000  -7.31137184  -0.32528853
 C  -2.86319354  -4.38115418   0.08529149
 H  -2.01817683  -3.94430070   0.60355960
 C  -3.16881052  -5.72877916   0.23877110
 H  -2.56212383  -6.35730795   0.88122620
 N  -3.28580178  -1.80635069  -3.74647635
 H  -3.95273751  -1.22629978  -3.26143468
 C  -1.91280716  -1.38266519  -3.61768346
 H  -1.27175998  -2.25408757  -3.73855107
 C  -1.74413001  -0.76645615  -2.22182040
 C  -1.56268537  -0.37716211  -4.70222853
 H  -0.54577750   0.00663491  -4.53905904
 H  -2.25921810   0.46786955  -4.64699755
 O  -2.70740160  -0.32706428  -1.60173240
 O  -1.66163210  -1.06557311  -5.94253425
 H  -1.62563879  -0.42296324  -6.65482461
 N  -0.47930410  -0.74184928  -1.73945482
 H   0.30878047  -0.98275905  -2.32030872
 C  -0.12467917   0.03388532  -0.56773618
 H  -0.64205103   0.99917256  -0.59497394
 C   1.39601202   0.25243085  -0.66883032
 C  -0.53386209  -0.67222673   0.71887591
 H   0.11362763  -1.53944563   0.90122685
 H  -1.56255471  -1.01930836   0.58192571
 O   2.03875155  -0.18333702  -1.61173549
 O  -0.45032203   0.27753380   1.78365735
 H  -0.55078779  -0.19132870   2.61704292
 N   1.94527238   0.95478555   0.33834542
 H   1.39566801   1.17954378   1.15888613
 C   3.35481082   1.24878514   0.37392952
 H   3.89838853   0.39594542  -0.04196982
 C   3.74856618   1.47208068   1.83822983
 C   3.72275526   2.49293418  -0.45968056
 H   3.11473881   3.34635012  -0.15626265
 H   4.77560818   2.73369092  -0.29521681
 O   2.93014279   1.73759240   2.69810820
 C   3.48962919   2.23895620  -1.92511247
 O   2.65982409   2.78977593  -2.60652443
 O   4.32844068   1.29630703  -2.39063854
 N   5.07813524   1.37019126   2.09300429
 H   5.71494201   1.21802888   1.33035597
 C   5.61000539   1.78993469   3.36691482
 H   4.78358674   2.27397396   3.89876800
 C   6.67748328   2.85536356   3.22278852
 C   6.11248069   0.62792482   4.22673920
 H   6.60751623   1.05601109   5.09736941
 H   6.86803265   0.06505774   3.67301209
 O   7.40723332   3.20569437   4.11290422
 C   4.97215250  -0.28289577   4.65105424
 H   4.43302852  -0.65357100   3.77871537
 H   4.25820568   0.29854299   5.23467695
 C   5.42391980  -1.48059188   5.47506887
 H   4.56516156  -2.10027630   5.74980889
 H   6.07886751  -2.11710088   4.87605296
 N   6.18995254  -1.14919666   6.69239245
 H   7.17100405  -0.96790278   6.53560158
 N   4.32611010  -0.27834798   7.79035477
 H   3.91171239  -0.01271738   8.66917919
 H   3.74136076  -0.83138566   7.18559934
 N   6.47855818   0.03820426   8.66922597
 H   7.40200817  -0.36614739   8.75061791
 H   6.06199882   0.31556313   9.54573825
 C   5.65646315  -0.48028635   7.72335241
 O   6.69532177   3.42119321   1.99697389
 H   7.37559108   4.10707383   2.02352658
 H   4.00441798   1.05633901  -3.26794110
