21
conf-217
 N  -3.74849919  -2.12877227  -5.16872723
 H  -3.32208326  -1.77001648  -6.01632566
 H  -3.09140346  -2.82084262  -4.81874802
 C  -3.84629834  -1.06892164  -4.18167636
 H  -4.40099130  -0.22978493  -4.61707331
 C  -2.47503116  -0.55438642  -3.73043592
 C  -4.66060660  -1.57867152  -2.98616018
 H  -5.62607219  -1.90007342  -3.37458122
 H  -4.15516140  -2.46284455  -2.59262394
 O  -1.46023868  -1.23874599  -3.82312893
 C  -4.82260896  -0.54250061  -1.90798292
 C  -4.03062378  -0.61319258  -0.76712522
 H  -3.36883466  -1.46159844  -0.65709680
 C  -5.68088636   0.54138439  -2.07177081
 H  -6.28975750   0.59682000  -2.97172218
 C  -4.06348234   0.40364773   0.18080143
 H  -3.42911440   0.34389133   1.05430852
 C  -5.71652537   1.56109685  -1.12534856
 H  -6.37101940   2.40967291  -1.28347264
 C  -4.90822270   1.49813671   0.00527817
 H  -4.94087777   2.29157987   0.74243226
 N  -2.45393754   0.69245096  -3.21740647
 H  -3.33140164   1.15190008  -3.02194391
 C  -1.21626479   1.40689790  -2.97780800
 H  -0.49261193   1.06147043  -3.72629922
 C  -0.62035290   1.12184307  -1.59621644
 C  -1.43188055   2.90536387  -3.15623004
 H  -2.12535586   3.26855093  -2.38371465
 H  -1.88152571   3.07774622  -4.13579758
 O  -0.22759903   2.03844867  -0.85767418
 O  -0.20810340   3.60842984  -3.12809059
 H   0.11200113   3.50099215  -2.22431867
 N  -0.51449795  -0.16456603  -1.23343944
 H  -0.67056497  -0.88537149  -1.93010123
 C   0.14766098  -0.49007967   0.01650943
 H  -0.03754308   0.35591450   0.68132015
 C   1.65094694  -0.63043977  -0.22957951
 C  -0.40811001  -1.75336786   0.63047594
 H   0.23055089  -2.04999010   1.46871811
 H  -0.38409188  -2.55853543  -0.11513580
 O   2.23462280  -1.70379966  -0.23021597
 O  -1.73431165  -1.46823885   1.06270957
 H  -2.06306415  -2.22041938   1.56349581
 N   2.28074460   0.54544231  -0.50943013
 H   1.78960907   1.41707067  -0.35561938
 C   3.72300129   0.60063297  -0.61005818
 H   4.06771348  -0.42369616  -0.72664907
 C   4.29440812   1.20818056   0.67612989
 C   4.14745268   1.44028044  -1.81707217
 H   3.62937174   1.06587218  -2.70183915
 H   3.84697128   2.47862300  -1.67394436
 O   3.79204643   2.18438498   1.20979613
 C   5.62314777   1.43432584  -2.11541017
 O   6.22814360   2.34879046  -2.60882079
 O   6.20353225   0.25567211  -1.78729360
 N   5.41366600   0.59525561   1.13826516
 H   5.88098589  -0.07919550   0.55106206
 C   6.18046736   1.18266989   2.20891076
 H   5.82954944   2.21184129   2.34110050
 C   7.63608470   1.23769470   1.80830802
 C   6.00541404   0.44515910   3.54081992
 H   6.62267433   0.95216969   4.28274646
 H   6.38176937  -0.57584039   3.45063281
 O   8.10053280   0.75101151   0.81010073
 C   4.55435439   0.43121585   4.00612245
 H   3.95042126  -0.17463144   3.33265120
 H   4.15304929   1.44531983   3.96195169
 C   4.41681627  -0.10964521   5.41792318
 H   4.83930481  -1.12065542   5.47436630
 H   4.98583792   0.52033235   6.10675034
 N   2.99718554  -0.11309008   5.81689857
 H   2.35125393  -0.30446248   5.06647566
 N   3.48796542  -0.69252880   8.02427879
 H   3.20362422  -1.23737288   8.82290203
 H   4.45247111  -0.80488185   7.75447058
 N   1.26786921  -0.69448035   7.25966015
 H   0.64542445  -0.19894803   6.63364456
 H   0.98045999  -0.64012006   8.22624945
 C   2.59388299  -0.51045446   7.03189494
 O   8.37300074   1.91091502   2.71148266
 H   9.28090300   1.90205412   2.38399190
 H   7.15514221   0.33442437  -1.94769197
