21
conf-399
 N  -4.87626353  -3.01946293  -4.03196668
 H  -5.86791417  -3.23590835  -4.07686097
 H  -4.68402198  -2.39267447  -4.80532004
 C  -4.56908156  -2.38405846  -2.75079118
 H  -5.21095422  -1.50833774  -2.56837167
 C  -3.12866839  -1.87737195  -2.76877112
 C  -4.81816850  -3.36620019  -1.60455442
 H  -4.68139752  -2.83269605  -0.65407043
 H  -5.87611363  -3.64565639  -1.66301494
 O  -2.15037845  -2.61877240  -2.83232505
 C  -3.96495394  -4.61087849  -1.59230739
 C  -4.18611468  -5.65431208  -2.48802604
 H  -4.97125430  -5.55067562  -3.22764406
 C  -2.94056301  -4.76204264  -0.65375029
 H  -2.73617143  -3.95962163   0.04862803
 C  -3.40658931  -6.80961349  -2.45868481
 H  -3.60259636  -7.60206352  -3.17226645
 C  -2.14849789  -5.90816127  -0.62235970
 H  -1.35678089  -5.98336996   0.11289863
 C  -2.38300122  -6.93974768  -1.52464258
 H  -1.77380626  -7.83642770  -1.50236551
 N  -2.99845618  -0.53046519  -2.73440288
 H  -3.82575530   0.03828602  -2.69407656
 C  -1.71108625   0.12295805  -2.90922252
 H  -1.12944409  -0.49868921  -3.59893240
 C  -0.94501813   0.20271239  -1.58537583
 C  -1.88667159   1.50722320  -3.51817291
 H  -2.47812449   2.13597350  -2.84131965
 H  -2.42508118   1.40729688  -4.46206934
 O  -0.50333636   1.26849721  -1.13789100
 O  -0.63647134   2.09892794  -3.80915981
 H  -0.24018121   2.27236227  -2.94688711
 N  -0.79419499  -0.95492940  -0.91834782
 H  -1.00181596  -1.82584151  -1.39921309
 C  -0.18277784  -0.98472209   0.39772776
 H  -0.43369256  -0.02981544   0.87212843
 C   1.33449517  -1.09358883   0.30450548
 C  -0.77425956  -2.13543799   1.18947287
 H  -0.38663612  -2.12966536   2.20620777
 H  -0.47002140  -3.07995956   0.71938857
 O   1.96056728  -2.00220852   0.85398849
 O  -2.18140404  -2.04211000   1.27090741
 H  -2.49006672  -1.62950162   0.46105929
 N   1.94783062  -0.14277500  -0.43266035
 H   1.41638977   0.69464398  -0.63510791
 C   3.39275282  -0.04096312  -0.43794025
 H   3.79015319  -1.04824275  -0.55606591
 C   3.89083345   0.55489363   0.88896376
 C   3.85384796   0.81767787  -1.61599944
 H   3.35131036   0.45093453  -2.51197036
 H   3.57160622   1.86170091  -1.47184522
 O   3.23643949   1.35158730   1.54237226
 C   5.33108090   0.71590288  -1.86552333
 O   6.00413701  -0.25353936  -1.58738830
 O   5.84056911   1.80839550  -2.45392554
 N   5.12809086   0.12943927   1.24702710
 H   5.68976835  -0.38552475   0.57852705
 C   5.75571433   0.59274676   2.46171140
 H   5.19947471   1.46671099   2.81149016
 C   7.17519923   1.02434183   2.16611662
 C   5.74567737  -0.49295297   3.54796272
 H   6.40652402  -0.19996094   4.36575331
 H   6.16259384  -1.40196884   3.11236612
 O   7.78780672   0.77424554   1.16128560
 C   4.32840368  -0.75330423   4.08430639
 H   3.57656439  -0.34541116   3.40481597
 H   4.19814915  -0.21566974   5.02779091
 C   4.06467444  -2.23187341   4.30293324
 H   4.89774531  -2.67836417   4.85319601
 H   3.15489824  -2.38594482   4.89343346
 N   3.94153853  -2.88947629   2.98462070
 H   3.45575818  -2.35279840   2.27183082
 N   4.01691864  -5.05534860   3.87627534
 H   4.34015046  -5.98234662   3.63688415
 H   4.44593957  -4.66482474   4.70237837
 N   3.52855163  -4.71820750   1.62494602
 H   3.15016993  -4.06885862   0.94441252
 H   3.11496311  -5.63752846   1.61205919
 C   3.81958312  -4.20784807   2.83895212
 O   7.69930019   1.72050753   3.19304611
 H   8.60418409   1.93645391   2.93422369
 H   6.78661543   1.64064626  -2.56823460
