21
conf-304
 N  -3.80283201   0.72059384  -5.47243661
 H  -3.59068268   0.07436993  -6.22699642
 H  -4.46257512   1.39798141  -5.83479240
 C  -4.45083587   0.01150837  -4.37128749
 H  -4.67787798   0.76169946  -3.60346258
 C  -3.50627610  -0.98687901  -3.69964738
 C  -5.77761982  -0.67150887  -4.74032273
 H  -5.59876706  -1.41849485  -5.51756201
 H  -6.13177385  -1.20787519  -3.85636362
 O  -3.90377154  -1.85505663  -2.94152095
 C  -6.79024160   0.33992647  -5.20520783
 C  -7.28357838   1.29943439  -4.32290526
 H  -6.93008493   1.29535656  -3.29791367
 C  -7.23104577   0.35807510  -6.52543835
 H  -6.84603581  -0.37702158  -7.22440440
 C  -8.21844520   2.24018648  -4.74219650
 H  -8.59505867   2.97142586  -4.03548099
 C  -8.15451852   1.30667340  -6.95713009
 H  -8.48333990   1.30267691  -7.99001905
 C  -8.65380747   2.24864737  -6.06392249
 H  -9.37726274   2.98536529  -6.39454892
 N  -2.19714657  -0.79710327  -3.98956369
 H  -1.96214534   0.05107265  -4.47206153
 C  -1.18699650  -1.42913714  -3.17973881
 H  -1.52278376  -2.44851364  -2.98866343
 C  -1.00316044  -0.70344625  -1.83481086
 C   0.11434320  -1.47381313  -3.95946397
 H  -0.01795831  -2.10437619  -4.84260149
 H   0.92274785  -1.87644131  -3.33630531
 O  -1.33940953   0.46675238  -1.64241565
 O   0.43384134  -0.15071610  -4.38345436
 H   1.39604629  -0.02315383  -4.34593811
 N  -0.39580737  -1.47125347  -0.88981319
 H  -0.28652710  -2.45664971  -1.03997189
 C  -0.17054987  -0.97173294   0.45707199
 H  -0.85958365  -0.14001485   0.60096616
 C   1.27818588  -0.48770783   0.54970332
 C  -0.44826530  -2.06594264   1.45521684
 H  -0.24654545  -1.70755613   2.47189570
 H   0.21934017  -2.90994662   1.25013178
 O   2.16541213  -1.18550176   1.04389757
 O  -1.81897121  -2.42460122   1.29492744
 H  -1.98749925  -3.19726618   1.83941310
 N   1.52745540   0.71930877   0.00077780
 H   0.77121515   1.21723648  -0.45268288
 C   2.88709061   1.18957681  -0.18079332
 H   3.51247092   0.30694721  -0.32468660
 C   3.34365012   1.95726027   1.06878451
 C   2.98988748   2.12274312  -1.40527994
 H   2.53418019   3.08223752  -1.15720581
 H   4.04249475   2.26819205  -1.64940941
 O   2.71004007   2.90737301   1.51201701
 C   2.28569644   1.51084346  -2.57817958
 O   2.80867023   0.72060127  -3.33474896
 O   1.01813546   1.89868596  -2.67675228
 N   4.51591044   1.53606604   1.60678438
 H   5.02848148   0.79580869   1.15761621
 C   5.16516459   2.28739557   2.66418436
 H   4.69654947   3.27376696   2.69803555
 C   6.63928668   2.49152532   2.38343822
 C   5.00407569   1.62305722   4.04061295
 H   5.66863233   2.13322256   4.74278895
 H   5.34165469   0.58983110   3.97140696
 O   7.29140066   3.40967342   2.80508353
 C   3.56280545   1.70927285   4.51756181
 H   2.90390218   1.40484496   3.71235003
 H   3.30893422   2.75475248   4.72500959
 C   3.24963025   0.88712849   5.76238763
 H   3.75438144   1.30238980   6.63542467
 H   2.17663897   0.92271900   5.96754439
 N   3.67710478  -0.52527647   5.69367149
 H   4.54655603  -0.74846434   6.15232596
 N   2.19092299  -1.11001279   3.97779598
 H   2.23133933  -1.45730092   3.02117946
 H   1.84762364  -0.16079923   4.02703854
 N   3.87145338  -2.58514309   4.61561738
 H   4.44006624  -2.90055803   5.39382407
 H   3.29705181  -3.31486972   4.21217231
 C   3.24530090  -1.38478859   4.77048210
 O   7.16800562   1.48755011   1.64413723
 H   8.10639484   1.68634077   1.53311344
 H   0.55634762   1.32068217  -3.32229917
