21
conf-797
 N  -5.89646077  -0.80925418  -6.19606319
 H  -5.37799614  -1.63698740  -6.47473122
 H  -6.86822931  -1.07075998  -6.08178188
 C  -5.37103945  -0.36236146  -4.91925659
 H  -5.70724037   0.66711018  -4.75311984
 C  -3.85058988  -0.40472017  -5.00025531
 C  -5.83577163  -1.22186080  -3.72752941
 H  -5.48048350  -2.24315690  -3.88682311
 H  -5.35244246  -0.84935793  -2.81937678
 O  -3.27198385  -1.33944329  -5.53346085
 C  -7.33500225  -1.21633356  -3.54444913
 C  -8.01126680  -0.02965945  -3.27012392
 H  -7.44185196   0.88891952  -3.19293420
 C  -8.07228335  -2.39289802  -3.65311050
 H  -7.55807979  -3.32206048  -3.87534058
 C  -9.39035076  -0.01909956  -3.08743402
 H  -9.89285818   0.91611660  -2.86680782
 C  -9.45375765  -2.38937312  -3.48468024
 H  -10.00630135  -3.31768295  -3.57528958
 C  -10.11672079  -1.20055288  -3.19740955
 H  -11.19226882  -1.19385716  -3.06070979
 N  -3.20460527   0.63078628  -4.40415319
 H  -3.70248482   1.23706744  -3.76907677
 C  -1.76962988   0.64177051  -4.24108959
 H  -1.38854853  -0.34859418  -4.48525593
 C  -1.48386873   1.02030603  -2.78944134
 C  -1.12129091   1.64453998  -5.18604355
 H  -0.04235830   1.69602846  -4.98159336
 H  -1.54905551   2.63881895  -5.00890662
 O  -2.30770988   1.65381490  -2.13909052
 O  -1.37676215   1.18941430  -6.50864943
 H  -1.14935147   1.88952996  -7.12488848
 N  -0.28369425   0.65854520  -2.29905211
 H   0.35660512   0.08288091  -2.82763075
 C   0.24800497   1.10120137  -1.02159124
 H   0.22525525   2.19378084  -0.96059091
 C   1.70250335   0.61690145  -1.01231762
 C  -0.54750676   0.57690683   0.18815968
 H   0.10006663   0.52444648   1.06850170
 H  -0.88922764  -0.44185635  -0.03262123
 O   2.11655511  -0.19829496  -1.81863871
 O  -1.61684168   1.43571257   0.51795290
 H  -2.09223926   1.62109676  -0.30384145
 N   2.48553093   1.13724053  -0.04001175
 H   2.14347804   1.79215575   0.64702335
 C   3.86062283   0.71112600   0.12166424
 H   3.90558898  -0.37516755   0.02875879
 C   4.29224335   1.16369124   1.52374062
 C   4.76702089   1.30692915  -0.97156393
 H   4.38736999   0.95624451  -1.93249010
 H   4.72576663   2.39780534  -0.95913855
 O   3.68802597   2.02927166   2.13094574
 C   6.19109801   0.85090955  -0.82029339
 O   6.50062943  -0.29555268  -0.57410090
 O   7.07426792   1.84334617  -0.96121751
 N   5.39242568   0.54181024   2.01038330
 H   5.84628152  -0.17772864   1.46369458
 C   6.07377163   1.04312344   3.17843304
 H   5.58588496   1.98626818   3.44717545
 C   7.52679112   1.37210039   2.85565726
 C   5.96440315   0.08412184   4.36727018
 H   6.57905561   0.47358172   5.18057058
 H   6.38324170  -0.88513012   4.08725563
 O   8.05961328   1.20690734   1.78873199
 C   4.52500630  -0.07661030   4.84021974
 H   3.89911064  -0.43001663   4.02514028
 H   4.12952959   0.89684565   5.13135096
 C   4.41547931  -1.03439317   6.01480613
 H   4.75120416  -2.02593605   5.70322255
 H   5.07572962  -0.72017783   6.83005747
 N   3.04827067  -1.21426922   6.53538199
 H   2.45135919  -1.81460748   5.98369643
 N   3.02956532   0.87176648   7.58804907
 H   2.64917347   1.43765249   8.32979937
 H   4.02836421   0.91438551   7.47048842
 N   1.08856432  -0.44672977   7.49999980
 H   0.75310385  -1.40072956   7.51975850
 H   0.66499253   0.16501900   8.18204317
 C   2.40387486  -0.26399564   7.22766587
 O   8.13892221   1.91110251   3.92643166
 H   9.04989101   2.11782547   3.68280511
 H   7.94079273   1.49038185  -0.71241643
