116
118
N         -8.33375       -2.31751       -4.90919
H         -8.75712       -1.93426       -4.06380
H         -8.33337       -1.59161       -5.63050
H         -8.85772       -3.13173       -5.23324
C         -6.93058       -2.70259       -4.67683
H         -6.83871       -3.21080       -3.70870
C         -6.07978       -1.43532       -4.69915
C         -6.49698       -3.69798       -5.77146
H         -6.58136       -3.19293       -6.73653
O         -6.40863       -0.46881       -5.37155
C         -5.10195       -4.25832       -5.58837
H         -4.33571       -3.48500       -5.61479
H         -4.89695       -4.97840       -6.38308
H         -5.03381       -4.78074       -4.62711
O         -7.44431       -4.76144       -5.82755
H         -7.29432       -5.31863       -5.06082
N         -4.94362       -1.47341       -3.95425
H         -4.61162       -2.34514       -3.56858
C         -3.90930       -0.47303       -4.08744
H         -4.09341        0.08756       -5.00709
C         -2.57673       -1.21318       -4.13460
C         -3.93710        0.50837       -2.90302
H         -3.78815       -0.05176       -1.97711
H         -3.09894        1.20191       -3.00324
O         -2.46182       -2.34138       -3.68805
C         -5.24410        1.24886       -2.86065
C         -5.45263        2.36972       -3.66301
H         -4.64259        2.72103       -4.29725
C         -6.29587        0.79414       -2.06228
H         -6.14529       -0.08560       -1.44514
C         -6.68335        3.02286       -3.67345
H         -6.82149        3.89239       -4.30544
C         -7.53034        1.44183       -2.07247
H         -8.33115        1.07463       -1.44082
C         -7.72863        2.55580       -2.88011
H         -8.68773        3.06160       -2.88708
N         -1.53584       -0.52665       -4.69460
H         -1.66248        0.46618       -4.80418
C         -0.16636       -0.89266       -4.35645
H         -0.16170       -1.96584       -4.17331
C          0.21765       -0.14588       -3.08098
C          0.77461       -0.52129       -5.49206
H          1.79935       -0.82510       -5.26551
H          0.76262        0.55948       -5.64549
H          0.46116       -1.00976       -6.41570
O         -0.11471        1.02612       -2.91024
N          0.95497       -0.82927       -2.18366
H          1.27106       -1.75901       -2.39815
C          1.35548       -0.23844       -0.91650
H          0.55452        0.45773       -0.64502
C          2.64688        0.56260       -1.10051
C          1.51677       -1.29211        0.17174
H          1.95621       -0.81564        1.04950
H          2.21824       -2.05771       -0.15720
O          3.71829        0.22850       -0.58519
C          0.19779       -1.94001        0.58465
H         -0.50842       -1.18449        0.93303
H         -0.24085       -2.50862       -0.23771
C          0.56149       -2.89515        1.74263
O          0.49988       -2.40518        2.88510
O          0.90435       -4.04170        1.40332
N          2.55092        1.65471       -1.88682
H          1.64050        1.92666       -2.23958
C          3.65472        2.59315       -2.01150
H          4.57019        1.99456       -2.02924
C          3.67539        3.49552       -0.76589
C          3.50747        3.39972       -3.28767
H          4.35230        4.08121       -3.40653
H          2.59188        3.99356       -3.26163
H          3.47527        2.72284       -4.14310
O          3.21658        4.62844       -0.75401
N          4.21445        2.91869        0.33779
H          4.41657        1.92407        0.32870
C          4.08565        3.55838        1.63451
H          4.16307        4.63562        1.46968
C          5.21464        3.04223        2.50714
C          2.74605        3.21961        2.28348
H          1.95769        3.61580        1.64230
H          2.65012        2.12905        2.28576
O          5.26085        1.86831        2.84493
C          2.55849        3.73518        3.71367
H          3.34907        3.29217        4.33091
C          2.66219        5.25510        3.78850
H          1.91302        5.71532        3.13687
H          3.64559        5.62207        3.48925
H          2.47946        5.60107        4.80897
C          1.21130        3.25356        4.24719
H          0.39847        3.66503        3.64458
H          1.06423        3.57015        5.28181
H          1.14655        2.16428        4.21440
N          6.16306        3.94248        2.86441
H          6.01186        4.91862        2.67889
C          7.22178        3.57656        3.78787
H          7.60802        2.59829        3.49197
C          6.71134        3.42651        5.20639
C          8.34476        4.61938        3.72680
H          7.94841        5.58618        4.03071
H          8.63955        4.70251        2.67769
O          7.13889        2.63586        6.01143
C          9.54972        4.23625        4.56946
H          9.90123        3.24000        4.28215
H          9.26961        4.17704        5.61749
C         10.70875        5.21290        4.42584
H         11.06548        5.22329        3.39398
H         11.55690        4.89727        5.04048
N         10.37544        6.61392        4.74729
H          9.94700        7.13186        3.99375
N         10.17097        6.18320        7.02924
H         10.13840        6.55754        7.96359
H         10.74867        5.36806        6.90488
N          9.45413        8.23225        6.13971
H          9.61876        8.91788        5.41478
H          9.42441        8.60854        7.07574
C         10.01838        7.00931        5.97628
O          5.74489        4.32202        5.52011
H          5.53886        4.16373        6.44770
