21
conf-217
 N  -0.09360933  -2.04156927   3.43580085
 H   0.44006508  -1.17927541   3.42756796
 H  -0.29188381  -2.25176282   4.40767149
 C  -1.34635784  -1.89523898   2.69564201
 H  -1.96669127  -1.07277985   3.09507220
 C  -0.97535755  -1.57575968   1.24757361
 C  -2.12200509  -3.19792444   2.79019159
 H  -2.23305570  -3.43618188   3.84916495
 H  -1.51371888  -3.98503373   2.34744623
 O  -0.75798538  -2.44668443   0.41950604
 C  -3.49216430  -3.13894308   2.11462439
 H  -3.39379061  -2.98308020   1.03890002
 H  -4.08294311  -2.30696030   2.50629393
 C  -4.29213351  -4.39148302   2.30897308
 O  -4.03415989  -5.36859552   2.92665021
 O  -5.57540444  -4.36318182   1.58659685
 N  -0.87698671  -0.24502187   0.98302852
 H  -1.07529861   0.39657079   1.73158684
 C  -0.35942049   0.34811015  -0.24359030
 H  -0.63606317   1.40447091  -0.18592542
 C   1.17011220   0.26647163  -0.26994041
 C  -0.95890921  -0.22417747  -1.52987883
 H  -0.66878664  -1.26371175  -1.64394612
 H  -2.04311780  -0.19601663  -1.42481184
 O   1.78147311  -0.70085164  -0.70643589
 C  -0.51346389   0.58269176  -2.71975840
 C  -1.12472443   1.79388211  -3.04069063
 H  -1.96716357   2.13394250  -2.45171252
 C   0.57965926   0.16792231  -3.48207153
 H   1.09537375  -0.74454707  -3.20975905
 C  -0.66137782   2.57513210  -4.10104602
 H  -1.12104191   3.52472230  -4.34720705
 C   1.04769887   0.93491589  -4.55089777
 H   1.91257442   0.60333864  -5.12095210
 O   0.87539572   2.96762471  -5.85025703
 H   1.54951145   2.49693753  -6.34905605
 C   0.42265204   2.14226784  -4.84812680
 N   1.81049177   1.35632858   0.22644973
 H   1.30254140   2.07806671   0.71329991
 C   3.24922373   1.39369998   0.32495737
 H   3.61758953   0.38315876   0.13597164
 C   3.64027822   1.81230858   1.72559871
 C   3.88606431   2.35048006  -0.69046226
 H   3.54920639   3.36937728  -0.48127286
 H   4.96529927   2.33118650  -0.53568082
 O   2.91452935   2.35370409   2.51972694
 C   3.56701021   1.96469520  -2.12865848
 H   2.48697771   2.02164321  -2.30413554
 H   3.84277432   0.91497839  -2.27527513
 C   4.27723748   2.81758757  -3.17528969
 H   5.35950451   2.75546437  -3.01085254
 H   4.09704984   2.39044418  -4.17125981
 C   3.87398761   4.29174937  -3.17119967
 H   4.05190652   4.71304220  -2.17472930
 H   4.52328629   4.84412481  -3.85713334
 N   2.49762631   4.59907887  -3.53702644
 H   1.83934742   4.11015420  -2.94299800
 H   2.30347359   4.31739941  -4.49118713
 O   4.93517456   1.53772751   1.98184078
 H  -6.16014576  -3.58385443   1.72504169
 H  -6.05674207  -5.17685590   1.84747077
 H   5.10199488   1.85773159   2.87751887
