21
conf-883
 N  -1.08335291  -3.91277582   2.18916380
 H  -1.93060541  -4.14086711   1.66066207
 H  -0.29669576  -3.84623990   1.54195508
 C  -1.30625670  -2.65619233   2.93280351
 H  -0.47506941  -2.52502817   3.63950087
 C  -1.29082060  -1.48904843   1.93886121
 C  -2.61541963  -2.69038667   3.70849314
 H  -3.44501998  -2.76173858   3.00349137
 H  -2.72853253  -1.73593016   4.22652034
 O  -2.30020645  -0.90077824   1.57118062
 C  -2.68794047  -3.82736343   4.72249215
 H  -3.51730332  -3.65010112   5.41556434
 H  -1.78209374  -3.88017773   5.32717312
 C  -2.95028742  -5.16685217   4.09330798
 O  -3.56690580  -5.35346278   3.07158296
 O  -2.43056742  -6.18254105   4.81801565
 N  -0.06527505  -1.17525360   1.44906962
 H   0.75339326  -1.69807637   1.71172561
 C   0.11137669  -0.12142304   0.46105415
 H  -0.54418091   0.70972936   0.72482692
 C   1.57336460   0.27862030   0.51593005
 C  -0.24152655  -0.60553532  -0.95274590
 H   0.32991097  -1.51419390  -1.14553855
 H  -1.29888932  -0.86318336  -0.95382842
 O   2.46316162  -0.55290635   0.35361593
 C   0.06869510   0.42651799  -2.00337838
 C  -0.86919746   1.38296384  -2.39495680
 H  -1.86562198   1.36508317  -1.97016304
 C   1.34027588   0.47477984  -2.58259370
 H   2.08957266  -0.24093031  -2.26146621
 C  -0.54761135   2.36729699  -3.33114911
 H  -1.27384710   3.11183671  -3.62766661
 C   1.66018681   1.43034332  -3.54002193
 H   2.65542199   1.45438477  -3.97522415
 O   1.00174064   3.38929392  -4.80235151
 H   1.87691033   3.22427360  -5.15946554
 C   0.71660384   2.38929695  -3.89952709
 N   1.82526657   1.58962794   0.73101121
 H   1.07831141   2.23269634   0.94314699
 C   3.17955681   2.08693943   0.81199334
 H   3.82694099   1.26100103   1.11090964
 C   3.24729712   3.17218617   1.86496740
 C   3.68416003   2.63870393  -0.53113231
 H   4.72592528   2.93410492  -0.39218986
 H   3.67526599   1.81453504  -1.25431165
 O   2.30228147   3.73905621   2.35208076
 C   2.86555767   3.80434945  -1.06893537
 H   2.70008525   4.54125377  -0.27683493
 H   1.88023454   3.44108113  -1.37370341
 C   3.53198701   4.48299448  -2.25281174
 H   4.52927467   4.83315235  -1.96725568
 H   3.67166139   3.76586585  -3.07147726
 C   2.72850076   5.65890507  -2.76562022
 H   1.75314571   5.30145771  -3.10428554
 H   2.55315765   6.36087123  -1.93689927
 N   3.41905018   6.27102469  -3.90143551
 H   4.28552735   6.69234757  -3.58658907
 H   2.86412559   7.02761617  -4.28100383
 O   4.52299698   3.46757600   2.17883749
 H  -0.90454105  -4.68623287   2.82803041
 H  -2.66985459  -6.99681823   4.35628831
 H   4.48077114   4.17095299   2.83875270
