21
conf-472
 N   0.00280390  -2.75009243   3.31981050
 H   0.10978051  -3.59427612   2.76874053
 H   0.93781523  -2.37582730   3.42792946
 C  -0.82882432  -1.81183218   2.58158047
 H  -0.87064971  -0.86765989   3.13959606
 C  -0.28474042  -1.52274032   1.17673487
 C  -2.25494212  -2.35669978   2.46659851
 H  -2.21417344  -3.31468519   1.93830018
 H  -2.85319765  -1.67633572   1.84931002
 O   0.39475105  -2.32984351   0.56847589
 C  -2.96762170  -2.53202071   3.81021289
 H  -4.02479293  -2.75512982   3.64212516
 H  -2.91420552  -1.61512381   4.39607347
 C  -2.41388477  -3.62924240   4.66191870
 O  -1.93147003  -3.56765993   5.74505670
 O  -2.50741999  -4.93448043   4.02212682
 N  -0.62100527  -0.30547267   0.66867218
 H  -1.28717362   0.26505924   1.15736023
 C  -0.29049278   0.07991652  -0.69404312
 H  -0.73416724   1.07469488  -0.81658285
 C   1.22210493   0.23453386  -0.93486328
 C  -0.91120901  -0.84269361  -1.75654350
 H  -0.64561278  -0.44248877  -2.73447741
 H  -0.45753927  -1.82787301  -1.68132296
 O   1.71483353   0.04290549  -2.03839829
 C  -2.39566659  -0.92131740  -1.58611041
 C  -2.98937807  -2.00345051  -0.93352136
 H  -2.36514173  -2.79906893  -0.54356445
 C  -3.22450871   0.10482100  -2.04143293
 H  -2.77060860   0.95822011  -2.53368329
 C  -4.36819036  -2.07122199  -0.76092258
 H  -4.82759541  -2.91087023  -0.25513823
 C  -4.60812304   0.05009058  -1.87681636
 H  -5.22941849   0.85906141  -2.24480808
 O  -6.52385075  -1.16325317  -1.02413290
 H  -6.96686745  -0.39449903  -1.39208913
 C  -5.17834371  -1.04247461  -1.22964076
 N   1.94231179   0.68731199   0.11718762
 H   1.51922166   0.78935367   1.02250333
 C   3.35845505   0.93434285  -0.02099508
 H   3.69911239   0.39807836  -0.91001650
 C   4.14631412   0.40139280   1.15832366
 C   3.69090552   2.42233901  -0.20789471
 H   3.36092537   2.99086699   0.66315554
 H   4.77942456   2.50324823  -0.25778535
 O   5.27727018  -0.00151157   1.10027217
 C   3.07931383   2.99947566  -1.47605307
 H   1.99196739   3.00056687  -1.39188549
 H   3.32653292   2.34105775  -2.31200615
 C   3.56449697   4.40915926  -1.76748488
 H   3.35206069   5.04906882  -0.90302432
 H   4.65410593   4.39914417  -1.89081927
 C   2.91719901   5.03212555  -3.00077453
 H   1.83856302   5.11767969  -2.84363520
 H   3.29260804   6.04917467  -3.13640383
 N   3.11036961   4.31566648  -4.25974509
 H   2.68167906   3.39943405  -4.20849325
 H   4.09876827   4.16157299  -4.43217292
 O   3.45357028   0.48459446   2.31939655
 H  -3.39763065  -5.24016092   3.74373385
 H  -2.16597739  -5.58405074   4.66853757
 H   4.03950031   0.16164338   3.01628616
