21
conf-549
 N  -4.39206359   4.34144848   1.51257130
 H  -4.64737596   5.16105024   2.05262619
 H  -3.71600764   4.65269978   0.82491185
 C  -3.80732129   3.33803036   2.40065843
 H  -2.88496804   3.70278999   2.88774049
 C  -3.46083365   2.10728361   1.55829952
 C  -4.82901652   2.98980062   3.47076248
 H  -5.12606818   3.93045307   3.94340278
 H  -5.71579798   2.58504201   2.98214023
 O  -4.27097072   1.21700089   1.33104524
 C  -4.30697084   2.01155653   4.52138296
 H  -3.40088731   2.38269081   4.99773063
 H  -4.06565058   1.05343331   4.05194207
 C  -5.31381399   1.74745947   5.60592317
 O  -5.09901320   1.79863982   6.78962213
 O  -6.52221824   1.40750755   5.10137588
 N  -2.20981694   2.07583744   1.04924663
 H  -1.51478994   2.78203111   1.24359461
 C  -1.73262754   0.93903452   0.28830750
 H  -2.09117382   0.01433459   0.74681832
 C  -0.20978130   1.00870383   0.35469211
 C  -2.25465978   0.96733842  -1.16534315
 H  -1.98520828   1.92475705  -1.61504682
 H  -3.33929039   0.90037567  -1.12449141
 O   0.37224852   2.07548620   0.51899408
 C  -1.67142971  -0.13973805  -1.98835870
 C  -0.56983282  -0.01876967  -2.78616713
 H  -0.01081356   0.86322393  -3.03801510
 C  -2.02413189  -1.53432926  -1.99012370
 C  -1.07074194  -2.20690374  -2.77180576
 C  -3.05271318  -2.26077724  -1.37599295
 H  -3.80961714  -1.76263620  -0.77542101
 N  -0.19311364  -1.25576189  -3.25893559
 H   0.67955588  -1.43887117  -3.71923316
 C  -2.11710657  -4.28914951  -2.32789026
 H  -2.16738413  -5.36477501  -2.44814326
 C  -1.09039143  -3.58797860  -2.95043056
 H  -0.35007032  -4.09255989  -3.55954298
 C  -3.08644102  -3.63567992  -1.55386178
 H  -3.87323801  -4.21608334  -1.08731621
 N   0.44701686  -0.17100253   0.22062772
 H  -0.05781081  -0.94874844  -0.17600178
 C   1.90135586  -0.19188696   0.15922384
 H   2.22263805   0.61678481   0.81628936
 C   2.36899217   0.11362496  -1.25996348
 C   2.52755357  -1.49613270   0.67420900
 H   3.60203595  -1.32706072   0.72401761
 O   2.72459268  -0.77827796  -2.05342965
 C   1.99193869  -1.95027379   2.01312063
 H   2.19187156  -1.19774930   2.77767441
 H   2.47661014  -2.88190392   2.30868696
 H   0.91670424  -2.12057010   1.97018132
 O   2.36132348  -2.58711286  -0.31890359
 H   1.42063643  -2.86525879  -0.28467657
 N   2.34530254   1.39561509  -1.63728143
 H   1.99947382   2.10050229  -0.99670919
 C   2.94983054   1.79097573  -2.90042270
 H   2.51880904   1.18280622  -3.70517260
 C   4.44748259   1.52517783  -2.87276656
 C   2.66843170   3.27856240  -3.15554031
 H   3.16556207   3.85930604  -2.37398915
 H   1.59140299   3.42576176  -3.03350063
 O   5.15071295   1.53347411  -1.89691338
 C   3.08423551   3.77791665  -4.53112790
 H   4.16112327   3.67709022  -4.66864849
 H   2.60933934   3.16726195  -5.30275325
 C   2.68043688   5.23223727  -4.74309122
 H   1.60630315   5.34465593  -4.59107383
 H   3.18123315   5.86478025  -4.00558212
 N   3.02753717   5.75832184  -6.05929363
 H   4.02144683   5.89725448  -6.15888148
 N   1.16739355   4.77350169  -7.08523607
 H   0.78297412   4.53969360  -7.98866752
 H   0.57390392   5.38248884  -6.54310945
 N   3.10157864   5.00948403  -8.31984134
 H   4.06550768   5.32510855  -8.25140276
 C   2.48614557   5.18858398  -7.21157287
 O   4.92839798   1.32406009  -4.12340496
 H   2.52324332  -2.06424821  -1.18470557
 H   5.87947972   1.19924794  -4.02183917
 H  -7.09430006   1.23541210   5.85945836
