21
conf-602
 N  -3.88849392  -1.61787008   3.14915670
 H  -3.31394894  -2.41372668   2.89284787
 H  -4.28079370  -1.81390652   4.06052044
 C  -3.04459228  -0.43671495   3.21668468
 H  -3.68905654   0.44292353   3.32066519
 C  -2.31483561  -0.33407402   1.88008606
 C  -2.02526205  -0.45569534   4.35854032
 H  -1.50795130  -1.41668454   4.36911014
 H  -1.26845855   0.31728613   4.18223264
 O  -1.74306008  -1.33537781   1.41564078
 C  -2.67707467  -0.21594880   5.71822968
 H  -3.41724333  -0.99614061   5.92638371
 H  -3.19572025   0.74249406   5.74805115
 C  -1.68981762  -0.23081086   6.84745076
 O  -1.61282087   0.58846339   7.72623252
 O  -0.87943797  -1.31543847   6.79451805
 N  -2.28720153   0.86676406   1.27852570
 H  -2.77704548   1.63879605   1.70131930
 C  -1.76697005   1.05126560  -0.08328776
 H  -2.11419342   0.20427317  -0.67464457
 C  -0.24403249   1.03790924  -0.03195735
 C  -2.31728893   2.35281618  -0.65509452
 H  -1.84402366   3.18834615  -0.13794183
 H  -3.38197945   2.38821341  -0.41269200
 O   0.43853182   2.05741966   0.01530686
 C  -2.14059869   2.48783015  -2.14061856
 C  -1.65924192   1.57090972  -3.03752949
 H  -1.29373753   0.57127915  -2.87930834
 C  -2.48431006   3.65743615  -2.91463539
 C  -2.17741018   3.38372069  -4.25731267
 C  -3.02534220   4.90388438  -2.56795371
 H  -3.27220305   5.14083359  -1.53736668
 N  -1.66734804   2.10928397  -4.30678814
 H  -1.37895077   1.63321825  -5.14064607
 C  -2.93234008   5.53614281  -4.91454686
 H  -3.11842855   6.28294251  -5.67702504
 C  -2.39420984   4.31119420  -5.27922210
 H  -2.15244161   4.07769804  -6.31012852
 C  -3.24383382   5.82894225  -3.57370878
 H  -3.66362687   6.79795823  -3.32992398
 N   0.31661167  -0.19381158  -0.04206005
 H  -0.29131709  -0.99175356   0.03830603
 C   1.70329603  -0.36012301   0.33258087
 H   1.98926674   0.56365451   0.83854813
 C   2.53950427  -0.51697965  -0.93035828
 C   1.86063436  -1.53729613   1.29493564
 H   1.57271252  -2.45910345   0.78781365
 O   2.91905965  -1.59748116  -1.35496940
 C   3.24790739  -1.62895464   1.89094678
 H   3.98091286  -1.81527561   1.10701649
 H   3.29061919  -2.43303568   2.62364968
 H   3.50302832  -0.68962271   2.38500325
 O   0.89496674  -1.35087706   2.41361521
 H   0.94914519  -0.40582197   2.67886890
 N   2.82533421   0.64532240  -1.57385022
 H   2.34169584   1.48913747  -1.31297886
 C   3.57582641   0.59379918  -2.81168088
 H   3.03625799  -0.02951189  -3.53443009
 C   4.92371594  -0.07121411  -2.56941710
 C   3.76377926   1.99175174  -3.40874888
 H   2.77106692   2.42084723  -3.54646344
 H   4.19905226   1.88476039  -4.40623631
 O   5.56776530  -0.02784594  -1.55196422
 C   4.63234234   2.91885433  -2.57300966
 H   4.24351314   2.98430114  -1.55407489
 H   5.64567374   2.51494852  -2.48922684
 C   4.70642703   4.30817352  -3.17490949
 H   5.46935937   4.90744314  -2.66158153
 H   5.00760711   4.23466743  -4.22251825
 N   3.40875260   4.97044529  -3.12255833
 H   3.00342564   4.98799147  -2.19923753
 N   2.03750465   6.79611285  -3.43155572
 H   1.86091352   7.59294036  -4.02751185
 H   1.25643697   6.15783418  -3.40205579
 N   4.07769953   6.79832418  -4.53868847
 H   4.93848039   6.26953898  -4.62182798
 C   3.25408955   6.20339129  -3.76220863
 O   5.36319756  -0.68055620  -3.69614808
 H  -0.05011586  -1.52695612   2.12304677
 H   6.22169605  -1.05698538  -3.46892598
 H  -0.29800750  -1.25569636   7.56268346
