21
conf-578
 N  -6.39885821   1.84200934   2.84757640
 H  -6.89409530   1.75868360   1.95804775
 H  -6.35462798   0.90551986   3.25199074
 H  -6.93780628   2.44444294   3.46672752
 C  -5.03007491   2.34841721   2.62939960
 H  -5.08431168   3.31640032   2.11865918
 C  -4.29410772   1.36107226   1.72225105
 C  -4.27258683   2.53571444   3.93839198
 H  -4.27292402   1.59680319   4.48961595
 H  -3.22922359   2.75909575   3.71104922
 O  -4.69375185   0.21717859   1.57064620
 C  -4.83526694   3.64943430   4.81245454
 H  -5.85648482   3.42918420   5.14169550
 H  -4.88133412   4.59536573   4.26904011
 C  -4.01965154   3.85720493   6.06009555
 O  -3.18236162   3.10592378   6.49239769
 O  -4.35361290   5.00983705   6.68721940
 N  -3.16719960   1.84071113   1.13347072
 H  -2.78188150   2.73830945   1.38251961
 C  -2.35436897   1.01911129   0.27437048
 H  -2.55323434  -0.02542917   0.52564374
 C  -0.89412719   1.38967983   0.52030309
 C  -2.68856314   1.21677406  -1.22108907
 H  -1.95241910   0.66532815  -1.81246590
 H  -2.58995313   2.27565200  -1.47219095
 O  -0.57037455   2.45758284   1.00236504
 C  -4.07477984   0.74997765  -1.55849562
 C  -5.16209772   1.53803037  -1.80893048
 H  -5.23211346   2.61386474  -1.85059361
 C  -4.53329780  -0.61392704  -1.63886483
 C  -5.91119829  -0.57816082  -1.91847798
 C  -3.89479899  -1.85184614  -1.49169636
 H  -2.82939819  -1.90796064  -1.27699785
 N  -6.27251313   0.74769365  -2.02005994
 H  -7.19867215   1.08696040  -2.19517039
 C  -6.02238874  -2.94920791  -1.91143032
 H  -6.58294214  -3.87083488  -2.01385825
 C  -6.67996677  -1.73605887  -2.05715298
 H  -7.74115180  -1.68269966  -2.27114082
 C  -4.64545152  -3.00868219  -1.63511853
 H  -4.16603017  -3.97362972  -1.52837703
 N   0.01112530   0.42780974   0.16322156
 H  -0.31291784  -0.30064396  -0.45506370
 C   1.38358739   0.78851388  -0.15266660
 H   1.49800054   1.87216522  -0.06962928
 C   1.61080245   0.31569498  -1.59106935
 C   2.34750401   0.14113127   0.86017606
 H   2.24982060  -0.95165537   0.76891722
 O   0.89442136  -0.53228969  -2.09888485
 C   3.79170888   0.56500197   0.69359718
 H   4.20954734   0.27087777  -0.26948243
 H   4.38583662   0.12139250   1.49431388
 H   3.85072599   1.65491644   0.79019316
 O   1.97525806   0.55558732   2.17165634
 H   1.03014031   0.37990363   2.26165917
 N   2.64893754   0.87501552  -2.24432336
 H   3.35385360   1.46011252  -1.81830808
 C   3.09569423   0.36170327  -3.51097411
 H   3.04624288  -0.73307156  -3.51672917
 C   4.57913346   0.81862571  -3.59401961
 C   2.25714508   0.89389519  -4.67293058
 H   2.26730535   1.98863151  -4.66231558
 H   1.23120783   0.58849450  -4.46386967
 O   5.26804174   0.32018580  -4.48878995
 C   2.69421653   0.36244486  -6.04875243
 H   3.29828082  -0.53423653  -5.92061321
 H   1.80926968   0.06736189  -6.61611951
 C   3.48143351   1.38424269  -6.86438583
 H   2.86230993   2.26588699  -7.03694845
 H   4.36429765   1.71887510  -6.32132641
 N   3.88137899   0.90566021  -8.20111896
 H   3.16293816   0.93115782  -8.90963874
 N   5.65157078  -0.37219756  -7.38612110
 H   6.22827450  -1.19222295  -7.49306537
 H   5.40208622  -0.13853031  -6.43209577
 N   5.01093222  -0.52567512  -9.63919643
 H   4.66258727   0.04716046  -10.39897988
 H   5.92040739  -0.92544006  -9.83030487
 C   4.85337093   0.00158745  -8.39102080
 O   4.93349963   1.63661313  -2.72576448
 H  -3.80134737   5.05042292   7.47909388
