21
conf-365
 N  -5.25867747  -0.29636600   2.22228820
 H  -5.66481719   0.63868211   2.34334776
 H  -5.42066955  -0.62232684   1.26720403
 H  -5.74526585  -0.92948481   2.85978065
 C  -3.80201076  -0.26883584   2.49441764
 H  -3.63199810   0.37516237   3.36615937
 C  -3.10761195   0.39366432   1.29660959
 C  -3.23373787  -1.65217047   2.75245081
 H  -3.51871411  -2.30385449   1.92837956
 H  -2.14411394  -1.58827530   2.74020334
 O  -2.93213977  -0.21501816   0.21695070
 C  -3.69131149  -2.23006769   4.08995570
 H  -4.77459791  -2.35831248   4.13175409
 H  -3.41157043  -1.54846176   4.89979178
 C  -3.07597138  -3.56685717   4.38803098
 O  -3.67445664  -4.55495267   4.72873788
 O  -1.72794087  -3.54693790   4.25731620
 N  -2.74037072   1.67525535   1.49686951
 H  -2.85958753   2.07585665   2.41019727
 C  -2.45823209   2.58731514   0.39692135
 H  -2.96616071   2.17238908  -0.47971730
 C  -0.94912324   2.57127591   0.18169736
 C  -3.00888607   3.98778819   0.70909279
 H  -2.80476515   4.64640461  -0.13842275
 H  -2.48278844   4.39630837   1.57214259
 O  -0.19051780   3.33138415   0.76225781
 C  -4.49354581   3.90188769   0.92856746
 C  -5.44541360   4.02849418  -0.04598850
 H  -5.34354902   4.33924120  -1.07477014
 C  -5.18763058   3.47140445   2.12160221
 C  -6.53664058   3.29315862   1.77881180
 C  -4.78942067   3.20208672   3.43614667
 H  -3.76139493   3.36892225   3.75135373
 N  -6.67463266   3.65618578   0.45733644
 H  -7.52979767   3.64213465  -0.06469241
 C  -7.04011066   2.46213334   3.94305543
 H  -7.72663228   2.01322098   4.65081392
 C  -7.47626898   2.77542289   2.66838859
 H  -8.49749083   2.58704920   2.35615757
 C  -5.70919938   2.68227756   4.32374272
 H  -5.38817721   2.40655220   5.32075100
 N  -0.51542771   1.58137547  -0.65469121
 H  -1.19416984   0.89719067  -0.94780204
 C   0.85455447   1.11280628  -0.60561162
 H   1.47485464   1.95092311  -0.28142278
 C   1.35500683   0.66200715  -1.98086186
 C   1.03832902  -0.05934737   0.37972876
 H   2.05766573  -0.43028716   0.25569404
 O   2.44739811   0.13018302  -2.10663490
 C   0.80294993   0.35893229   1.81587213
 H   1.46863435   1.17632557   2.10710558
 H   0.96668494  -0.49140318   2.48063946
 H  -0.22369695   0.69383322   1.95145921
 O   0.18769929  -1.13222447   0.02076843
 H  -0.71278189  -0.88655929   0.25520888
 N   0.52079081   0.89195161  -3.02395437
 H  -0.18199361   1.62117174  -2.97631012
 C   0.97872830   0.72477554  -4.37490552
 H   2.07545775   0.79221585  -4.41181991
 C   0.34930024   1.89125507  -5.20270569
 C   0.54181489  -0.58338656  -5.03528709
 H   0.79328312  -0.48760009  -6.09447920
 H  -0.54587788  -0.68392653  -4.96800274
 O   0.70905091   1.98149872  -6.37970478
 C   1.20399340  -1.80110031  -4.41337774
 H   2.28826783  -1.66931523  -4.40598339
 H   0.90090650  -1.87898933  -3.36794313
 C   0.85375315  -3.10371865  -5.10808742
 H   1.24714896  -3.93867736  -4.52206002
 H  -0.23482080  -3.22271216  -5.15301536
 N   1.44153174  -3.14262852  -6.46193843
 H   1.53422263  -2.23839179  -6.90298881
 N   0.57044974  -5.26799979  -6.89745179
 H   0.65479863  -6.11076470  -7.44267790
 H   0.44088229  -5.39758603  -5.90798425
 N   1.59108129  -4.02221777  -8.60445035
 H   2.33412022  -3.36523185  -8.80281583
 H   1.62076851  -4.86195200  -9.16205020
 C   1.21214069  -4.15637285  -7.30911211
 O  -0.45129879   2.62067669  -4.57431984
 H  -1.42373774  -4.43395532   4.48617620
