21
conf-446
 N  -5.33269628   3.77882635   2.69362721
 H  -6.11826268   3.47295488   2.11613010
 H  -5.24478440   3.12445853   3.47496015
 H  -5.54380393   4.70271381   3.06670188
 C  -4.06402253   3.78913040   1.93298923
 H  -4.21505700   4.32876814   0.99400523
 C  -3.64594847   2.35261370   1.63779497
 C  -2.96155585   4.47423216   2.74239376
 H  -3.36961419   5.41167361   3.13025476
 H  -2.73372642   3.84093053   3.59997778
 O  -3.79794786   1.46224657   2.47193029
 C  -1.69514944   4.76041229   1.94570020
 H  -1.89735922   5.42955818   1.10681009
 H  -1.27495254   3.84217161   1.52519956
 C  -0.61333071   5.40266147   2.76223048
 O   0.05742867   6.33883900   2.41320018
 O  -0.43571224   4.78487425   3.95220872
 N  -3.08969585   2.14544929   0.41326715
 H  -2.79654322   2.96268211  -0.10190395
 C  -2.31620838   0.95195222   0.13364281
 H  -2.55300580   0.21980480   0.90104183
 C  -0.82777780   1.26819958   0.22006412
 C  -2.65967414   0.35786798  -1.23781795
 H  -1.90001663  -0.38446226  -1.50256859
 H  -2.59252654   1.14123464  -1.99553172
 O  -0.37956553   2.38566826   0.02628002
 C  -4.02634921  -0.27389924  -1.24304233
 C  -4.90547914  -0.40458449  -0.19635804
 H  -4.80749347  -0.05776175   0.81773479
 C  -4.67391815  -0.88599622  -2.38031658
 C  -5.92714840  -1.35363266  -1.95229557
 C  -4.29735434  -1.06997373  -3.71873711
 H  -3.34302999  -0.71379522  -4.09369825
 N  -6.04862390  -1.03970753  -0.61862231
 H  -6.83647107  -1.27068182  -0.04265711
 C  -6.42646978  -2.18664708  -4.11544557
 H  -7.08701570  -2.69114888  -4.80992154
 C  -6.82271226  -2.00797483  -2.80016224
 H  -7.78273370  -2.35784847  -2.43716616
 C  -5.17933161  -1.72239858  -4.56462635
 H  -4.90741477  -1.87917047  -5.60144531
 N  -0.02852124   0.19234207   0.52848706
 H  -0.45558199  -0.70447308   0.33995576
 C   1.38104473   0.23986730   0.16551436
 H   1.71853859   1.27027209   0.27837025
 C   1.51728947  -0.23181954  -1.28645988
 C   2.18473550  -0.64678970   1.13847733
 H   1.86361615  -1.68778548   0.98209589
 O   0.76947851  -1.07960829  -1.74907713
 C   3.68510320  -0.52353923   0.96997936
 H   4.01373927  -0.77538862  -0.03691368
 H   4.18428637  -1.17931603   1.68392497
 H   3.98116042   0.50796853   1.19302745
 O   1.90707335  -0.24195842   2.47273681
 H   0.95296581  -0.12388166   2.53156540
 N   2.53258257   0.34342580  -1.98945328
 H   3.30868006   0.76589877  -1.49643574
 C   3.00129207  -0.23097135  -3.22095245
 H   2.67798070  -1.27866381  -3.30068700
 C   4.55969930  -0.17382381  -3.14831386
 C   2.55345550   0.52627929  -4.47058497
 H   3.10179993   0.09979181  -5.31532262
 H   2.85031239   1.57628105  -4.38864468
 O   5.18003695  -0.68390897  -4.08100655
 C   1.05289323   0.43242399  -4.70848967
 H   0.76221811  -0.61234902  -4.81096545
 H   0.51606118   0.81874302  -3.84837792
 C   0.63515367   1.19001367  -5.95813355
 H   0.88901857   2.24587429  -5.84292570
 H   1.19089969   0.82389826  -6.82810513
 N  -0.81176416   1.15499177  -6.24758460
 H  -1.38227777   1.79001159  -5.70793095
 N  -0.75486987  -1.06658012  -6.96407754
 H  -1.17066452  -1.76372124  -7.56130577
 H   0.24934262  -0.99821582  -7.01036711
 N  -2.79603826   0.08091958  -6.76020680
 H  -3.21800816   0.99147633  -6.89024808
 H  -3.22664413  -0.65396713  -7.30312097
 C  -1.43630614   0.05564521  -6.67961200
 O   5.01203262   0.38809238  -2.12338674
 H   0.28905450   5.24623691   4.39224836
