21
conf-433
 N  -6.05420092   1.48663095   3.00058853
 H  -6.40960676   1.75162246   2.08352466
 H  -6.29548617   0.51022185   3.14856456
 H  -6.50931115   2.06857195   3.70325208
 C  -4.59615372   1.66541741   3.05123890
 H  -4.37385268   2.73469013   3.05861128
 C  -3.98461507   1.04748889   1.78908502
 C  -3.96923980   1.05022774   4.30398484
 H  -3.98064233  -0.03904558   4.22181785
 H  -2.92219200   1.35699825   4.33301574
 O  -4.63626473   0.33333794   1.04202783
 C  -4.65210453   1.45805223   5.61231416
 H  -4.03202854   1.17439089   6.46338818
 H  -5.61818322   0.95480614   5.70604708
 C  -4.89103414   2.93357365   5.60378617
 O  -5.92118533   3.43472130   5.22230957
 O  -3.81807601   3.66391379   5.97970644
 N  -2.67601623   1.31849487   1.57999848
 H  -2.16384273   1.95963916   2.16750053
 C  -1.96407947   0.80146708   0.42916091
 H  -2.23439876  -0.24586601   0.28794505
 C  -0.47266109   0.96238375   0.74822735
 C  -2.34464821   1.56267001  -0.85602787
 H  -2.03205087   2.60067431  -0.74579159
 H  -3.43540751   1.57162912  -0.91092335
 O  -0.06483880   1.88289665   1.43958594
 C  -1.75438441   0.98926884  -2.11529270
 C  -1.48835169  -0.31975943  -2.41375928
 H  -1.64171671  -1.20965433  -1.82452326
 C  -1.37036406   1.75204422  -3.27979474
 C  -0.88988223   0.85149943  -4.23644620
 C  -1.41271521   3.12241133  -3.57474276
 H  -1.77849062   3.84196867  -2.85172184
 N  -0.99257741  -0.41921528  -3.70528571
 H  -0.33487328  -1.14420410  -3.94243799
 C  -0.52390711   2.62364216  -5.77618394
 H  -0.19119676   2.98031470  -6.74395318
 C  -0.48205704   1.26267056  -5.50286431
 H  -0.12550862   0.54813373  -6.23762364
 C  -0.98495983   3.54456069  -4.82264307
 H  -1.00627853   4.59932520  -5.06901566
 N   0.34018694   0.04512358   0.17379823
 H  -0.04912474  -0.70331029  -0.36826968
 C   1.77320824   0.15232897   0.18196513
 H   2.04700382   1.17820990   0.42772559
 C   2.29315109  -0.22597406  -1.21555224
 C   2.42334092  -0.79522075   1.21031043
 H   3.51473067  -0.66370975   1.13443346
 O   1.59327568  -0.82203072  -2.03901723
 C   1.98259683  -0.52515890   2.62992144
 H   2.18720286   0.51054972   2.91787061
 H   2.50579641  -1.19977758   3.30740719
 H   0.91226187  -0.70214228   2.73440296
 O   2.06906485  -2.13648535   0.89673909
 H   2.29254925  -2.28202326  -0.03273655
 N   3.59316763   0.13668181  -1.39951636
 H   4.18638451   0.29896921  -0.59593446
 C   4.39549732  -0.36720773  -2.47970360
 H   4.03032359  -1.35273992  -2.81471942
 C   5.82555596  -0.53750289  -1.87269280
 C   4.49983391   0.57353823  -3.68248961
 H   5.34900728   0.23242898  -4.27274580
 H   4.72497251   1.58036003  -3.31563374
 O   6.70317411  -0.99132692  -2.60890755
 C   3.22757837   0.59509912  -4.51554025
 H   3.05252443  -0.40665067  -4.92104791
 H   2.36459215   0.81138797  -3.87279322
 C   3.25999103   1.58815089  -5.67266502
 H   2.28349926   1.58939243  -6.16131024
 H   3.42651411   2.60656978  -5.30814759
 N   4.24333157   1.26004393  -6.71995623
 H   4.08487455   0.38564289  -7.19963734
 N   6.01728845   2.51764933  -5.83107136
 H   6.83434486   3.07127344  -6.03537531
 H   5.38784168   2.90227440  -5.14446407
 N   6.30625320   1.21447411  -7.75785140
 H   5.85238667   0.90928876  -8.60974365
 H   7.19610418   1.67004377  -7.89950339
 C   5.50889856   1.69604058  -6.77137334
 O   5.91305363  -0.20482228  -0.66832667
 H  -4.07029914   4.59254220   5.89787637
