21
conf-950
 N  -6.29843390   2.36169587   2.76619556
 H  -6.83274691   2.32012667   1.89581666
 H  -6.32296809   1.42737815   3.18083547
 H  -6.74952895   3.01901240   3.39907503
 C  -4.89127213   2.73019229   2.51203174
 H  -4.87246067   3.63406884   1.89774648
 C  -4.22395129   1.57717340   1.76011765
 C  -4.16755640   3.00812539   3.83080386
 H  -4.76600541   3.74122660   4.38115401
 H  -4.16589545   2.08207568   4.41491214
 O  -4.62816776   0.42877712   1.87287951
 C  -2.73589228   3.54172100   3.70544824
 H  -2.09216066   2.85103725   3.16500331
 H  -2.32527955   3.66755875   4.71030048
 C  -2.73884198   4.90151859   3.06801956
 O  -3.15607829   5.90458331   3.59141956
 O  -2.24076336   4.89855136   1.81005859
 N  -3.14262103   1.91496969   1.01415389
 H  -2.79067469   2.86635235   1.01136706
 C  -2.35319277   0.92256666   0.33838371
 H  -2.63436905  -0.05017681   0.74974408
 C  -0.87116875   1.19683651   0.57150430
 C  -2.63730646   0.88754386  -1.17978936
 H  -1.91087273   0.22359453  -1.65691149
 H  -2.48019643   1.88887470  -1.58735940
 O  -0.44229187   2.31591476   0.78818463
 C  -4.04326291   0.44124162  -1.46261525
 C  -5.09929118   1.24982653  -1.78184732
 H  -5.11806455   2.31527588  -1.95233177
 C  -4.57050238  -0.89781556  -1.36978366
 C  -5.95197085  -0.82330964  -1.62032930
 C  -3.98819778  -2.14213936  -1.09070274
 H  -2.91874368  -2.23464730  -0.90691791
 N  -6.25191241   0.49834393  -1.86946886
 H  -7.16275457   0.85874301  -2.07928240
 C  -6.18257390  -3.16588338  -1.31776234
 H  -6.79162579  -4.06173289  -1.29145311
 C  -6.78203599  -1.94621551  -1.59596110
 H  -7.84559299  -1.86272819  -1.78830343
 C  -4.80218902  -3.26561548  -1.07241767
 H  -4.36977931  -4.23612036  -0.86206112
 N  -0.07750541   0.08157234   0.49570778
 H  -0.54821254  -0.73071759   0.13326453
 C   1.28973930   0.19596136   0.02801894
 H   1.58059820   1.24388297   0.11775388
 C   1.31067569  -0.23749263  -1.45845101
 C   2.26361397  -0.63216360   0.90215519
 H   2.04116060  -0.35211409   1.93747298
 O   0.38280116  -0.88991412  -1.93996219
 C   2.09291686  -2.13046173   0.72009866
 H   1.12792414  -2.46995179   1.10496490
 H   2.88505642  -2.66075807   1.25222598
 H   2.13678383  -2.38689425  -0.34434090
 O   3.60568977  -0.22343021   0.69240762
 H   3.96962247  -0.66911847  -0.07844045
 N   2.44495005   0.13519414  -2.12607266
 H   3.24795038   0.42591936  -1.58531054
 C   2.88561312  -0.53010725  -3.32202974
 H   2.38936634  -1.50835808  -3.43141237
 C   4.41005768  -0.78093449  -3.13151687
 C   2.65580935   0.28752252  -4.58937656
 H   3.25411598  -0.16315328  -5.38823213
 H   3.02987110   1.30106147  -4.42841729
 O   5.00227227  -1.34042054  -4.05327140
 C   1.18311252   0.31865191  -4.96746692
 H   0.83996663  -0.70232328  -5.17065932
 H   0.59555574   0.68081923  -4.12681254
 C   0.89500378   1.15601861  -6.20638729
 H   1.40814139   0.73291784  -7.07218107
 H  -0.17251121   1.13725885  -6.44530075
 N   1.34826318   2.55737100  -6.12168737
 H   2.31780440   2.70608665  -6.36146834
 N  -0.28627364   3.12135566  -4.56260987
 H  -0.79097451   3.86350176  -4.10493402
 H  -0.86007921   2.38855477  -4.94873034
 N   1.50560173   4.57880148  -4.97684346
 H   2.18110496   4.89446607  -5.65978100
 H   0.99812303   5.31535470  -4.50937446
 C   0.84405814   3.42439121  -5.23478229
 O   4.88601703  -0.40854985  -2.02990797
 H  -2.27087591   5.80819777   1.48861961
