21
conf-684
 N  -4.28696550   0.24747880   4.04798815
 H  -5.19296182  -0.21712819   3.97729040
 H  -3.55886416  -0.47068286   3.98275315
 H  -4.21665931   0.72692089   4.94293265
 C  -4.05306752   1.14425968   2.89984657
 H  -4.98971954   1.61969185   2.59044771
 C  -3.52491944   0.27119576   1.76612286
 C  -3.02095527   2.23203345   3.20991480
 H  -2.11907145   1.75565395   3.60225321
 H  -2.72227726   2.71090578   2.27233285
 O  -2.94501736  -0.77754321   1.99292071
 C  -3.50438635   3.28949976   4.19425054
 H  -3.71388756   2.86129350   5.17988163
 H  -4.43417258   3.75501800   3.85935350
 C  -2.48521180   4.37479228   4.39948034
 O  -1.35210849   4.37451831   3.97555415
 O  -2.97152577   5.38797247   5.14786764
 N  -3.70120027   0.76237991   0.49667597
 H  -4.01753203   1.71880426   0.44820644
 C  -2.68246810   0.46630015  -0.51201441
 H  -2.38274099  -0.57261161  -0.37051090
 C  -1.50734210   1.42557418  -0.28751818
 C  -3.24901924   0.69477565  -1.92474207
 H  -3.49247918   1.75474693  -2.00861337
 H  -4.16901717   0.12119212  -2.01426865
 O  -1.77224122   2.62124270  -0.08064066
 C  -2.28481029   0.29138233  -3.00497483
 C  -2.25832042  -0.91524268  -3.65481570
 H  -2.89716797  -1.77549478  -3.53838276
 C  -1.19437246   1.07067633  -3.54793039
 C  -0.57561250   0.28600671  -4.53791016
 C  -0.70318722   2.36803683  -3.29917827
 H  -1.12464222   2.97011208  -2.49302095
 N  -1.22612452  -0.92324399  -4.57042346
 H  -1.00163515  -1.68326049  -5.18475881
 C   0.95050490   2.03536779  -5.04890114
 H   1.81625267   2.40962838  -5.58412448
 C   0.49285778   0.75310424  -5.30849836
 H   0.96149565   0.12153755  -6.05467812
 C   0.36565975   2.83525553  -4.06128811
 H   0.76233927   3.82759677  -3.88061872
 N  -0.26325594   0.86843119  -0.37753498
 H  -0.17001735  -0.02250894  -0.84264215
 C   0.95442025   1.65691375  -0.40524240
 H   0.72957251   2.65324619  -0.79332640
 C   1.90918560   0.93151200  -1.34903824
 C   1.59634298   1.78809878   0.99360733
 H   2.62284251   2.15248090   0.86810845
 O   1.68366087  -0.19125204  -1.76835772
 C   0.82651440   2.74537123   1.88387206
 H   0.92704060   3.77284749   1.52103957
 H   1.18851612   2.69454232   2.90899354
 H  -0.24314986   2.50358808   1.87893600
 O   1.70532172   0.51392061   1.59004515
 H   0.83175497   0.11228407   1.51803734
 N   3.02433139   1.62748329  -1.64938326
 H   3.31264746   2.44290618  -1.12805841
 C   4.13403579   1.05207060  -2.36014200
 H   4.36697697   0.05005843  -1.97044789
 C   5.32238216   2.00867908  -2.04073748
 C   3.87683789   0.93740171  -3.85962912
 H   3.79294452   1.94360851  -4.28284715
 H   2.90482597   0.45070299  -3.97944306
 O   5.06157320   2.91191223  -1.21719553
 C   4.94077223   0.13310574  -4.59180644
 H   5.93057736   0.52153328  -4.35531502
 H   4.90288398  -0.89821546  -4.23167618
 C   4.73803364   0.15101406  -6.09456312
 H   3.73136493  -0.20378856  -6.34801957
 H   4.82562076   1.18191920  -6.45258003
 N   5.76942623  -0.68089198  -6.74279500
 H   6.03175068  -1.50409956  -6.22118550
 N   5.07424740  -0.08645368  -8.89777219
 H   5.34140481   0.01296236  -9.86339780
 H   4.54954184   0.67501644  -8.50297677
 N   6.68756219  -1.75863289  -8.57386267
 H   7.46842593  -2.02583848  -7.99055392
 H   6.90019458  -1.71004572  -9.55798029
 C   5.84675152  -0.82035652  -8.07582625
 O   6.40566474   1.78060348  -2.59137953
 H  -2.25021955   6.02469753   5.23737090
