21
conf-472
 N  -4.89011020   0.84285998   4.87678685
 H  -5.84391506   0.94083548   4.52445598
 H  -4.68556029  -0.15755294   4.92941584
 H  -4.83880111   1.23299841   5.81618929
 C  -3.91978353   1.49246219   3.97700259
 H  -4.31705784   2.46153644   3.66112180
 C  -3.71306080   0.65202188   2.71667762
 C  -2.57268138   1.73708064   4.66864857
 H  -1.86935211   2.10321031   3.91419387
 H  -2.69951108   2.53007254   5.40683382
 O  -3.90236209  -0.56167408   2.69309872
 C  -2.00324691   0.49788034   5.35116955
 H  -1.92964411  -0.34043149   4.66090329
 H  -2.66282600   0.18603982   6.16817302
 C  -0.65158255   0.74691539   5.95346838
 O   0.32924510   0.05884519   5.80553419
 O  -0.64376594   1.85002738   6.73679992
 N  -3.29253732   1.36441229   1.62952249
 H  -2.96999731   2.30229026   1.80747386
 C  -2.58360184   0.71538163   0.54652621
 H  -2.77540276  -0.35324274   0.61728983
 C  -1.08347103   0.97707886   0.73678718
 C  -3.04201001   1.19655092  -0.83075993
 H  -2.37700054   0.76536088  -1.58722108
 H  -2.92385720   2.28108299  -0.90413793
 O  -0.66414643   1.90800935   1.40761789
 C  -4.46315782   0.80047244  -1.12631777
 C  -5.31106054   0.01595265  -0.38664144
 H  -5.14290664  -0.44675573   0.57089526
 C  -5.20149143   1.18046706  -2.30625777
 C  -6.47839850   0.60588601  -2.21092433
 C  -4.87544032   1.96384749  -3.42084048
 H  -3.89462615   2.41936317  -3.51780382
 N  -6.52393053  -0.09544061  -1.02830042
 H  -7.30964921  -0.62766403  -0.70435119
 C  -7.10972727   1.55756781  -4.29096406
 H  -7.83740368   1.71777408  -5.07731185
 C  -7.45334075   0.78032169  -3.19505688
 H  -8.43358685   0.32631472  -3.10123303
 C  -5.83480974   2.14304924  -4.40264256
 H  -5.60530180   2.74464109  -5.27425874
 N  -0.27284248   0.12296706   0.06335515
 H  -0.66313239  -0.66906449  -0.41897597
 C   1.16635367   0.17757169   0.13908651
 H   1.44884291   1.19717720   0.39146783
 C   1.73581622  -0.24221664  -1.20386680
 C   1.73500586  -0.78464372   1.21556613
 H   2.82100014  -0.84053151   1.06914324
 O   1.28718570  -1.20989774  -1.80962699
 C   1.42062404  -0.30547207   2.61712007
 H   1.90638762   0.65304654   2.82491519
 H   1.75888107  -1.04137044   3.34380635
 H   0.34437989  -0.17575813   2.73828204
 O   1.15037805  -2.07245322   1.08810881
 H   1.36380240  -2.41019818   0.20966179
 N   2.79273432   0.49479676  -1.65522291
 H   3.25242204   1.06028739  -0.95471827
 C   3.74343141  -0.10762359  -2.56029655
 H   3.22838233  -0.81941955  -3.20502294
 C   4.85648067  -0.91558574  -1.68646578
 C   4.50869218   0.92346751  -3.37150607
 H   5.27862891   0.39895105  -3.93963859
 H   5.02137718   1.59852724  -2.68098254
 O   5.34695142  -1.86631390  -2.29792745
 C   3.61158099   1.71959354  -4.31001454
 H   3.07551144   1.03903225  -4.97708197
 H   2.85224292   2.25499181  -3.73414882
 C   4.39314930   2.71947938  -5.13438489
 H   3.71738405   3.37286046  -5.69933570
 H   4.98091215   3.35137966  -4.46484399
 N   5.30914636   1.99939187  -6.04723866
 H   4.90419599   1.17616467  -6.47163038
 N   6.36348374   3.97491587  -6.73108746
 H   7.19725872   4.37844467  -7.12744839
 H   6.00539634   4.42949555  -5.90761522
 N   6.77027771   1.94894699  -7.84219945
 H   6.86463350   0.95192378  -7.70368602
 H   7.56004306   2.38386860  -8.29402058
 C   6.15870584   2.65044502  -6.85745020
 O   5.04836831  -0.42009452  -0.56415913
 H   0.24766524   1.91731921   7.10041773
