21
conf-883
 N  -3.77300982  -1.86400799   3.57779222
 H  -4.78864086  -1.76125019   3.53496288
 H  -3.47135643  -2.35085013   2.73013332
 H  -3.52304107  -2.41550412   4.39453673
 C  -3.08815870  -0.55656191   3.56619566
 H  -3.64885473   0.15688577   4.17370811
 C  -3.03477237  -0.09868655   2.11348223
 C  -1.66609346  -0.69147847   4.12125477
 H  -1.73724439  -1.11847701   5.12611085
 H  -1.12278233  -1.41145895   3.49559531
 O  -2.90317102  -0.92418003   1.21210135
 C  -0.86201832   0.61271303   4.19495860
 H  -0.73060320   1.07422178   3.21924386
 H   0.13251613   0.38697676   4.58631894
 C  -1.49915859   1.57053137   5.15590860
 O  -1.53588834   1.42909702   6.35164357
 O  -2.07099069   2.62987780   4.53377196
 N  -3.11650790   1.23728219   1.88659703
 H  -2.94065164   1.84727745   2.68304177
 C  -2.69417798   1.77436426   0.60137018
 H  -2.98526959   1.04554634  -0.15449245
 C  -1.16587721   1.92100998   0.62005338
 C  -3.35459112   3.12849173   0.30685393
 H  -2.77501842   3.63011823  -0.47180892
 H  -3.28261464   3.75293445   1.19821843
 O  -0.60940092   2.71137873   1.41952542
 C  -4.78610765   2.97478823  -0.11758056
 C  -5.90215999   3.24259206   0.62400381
 H  -5.98310500   3.63963973   1.62404050
 C  -5.24921995   2.45653171  -1.37964033
 C  -6.65247826   2.42643829  -1.33163206
 C  -4.58482477   2.01025442  -2.52808438
 H  -3.49878931   2.02781618  -2.58657040
 N  -7.02981823   2.91388787  -0.10089141
 H  -7.97316491   3.01301850   0.22064418
 C  -6.74801244   1.52306257  -3.52480821
 H  -7.31143319   1.15443903  -4.37357748
 C  -7.42684771   1.95840112  -2.39664578
 H  -8.50939424   1.94017404  -2.33893658
 C  -5.34289299   1.55210632  -3.59221606
 H  -4.84909782   1.20449631  -4.49168587
 N  -0.49454847   1.10991437  -0.23549739
 H  -0.99667800   0.41185324  -0.75994260
 C   0.94300319   0.95956544  -0.13657826
 H   1.24808170   1.41616967   0.80895789
 C   1.58923185   1.74099574  -1.27151702
 C   1.31546461  -0.51249281  -0.11254892
 H   2.40618172  -0.59689401  -0.13232871
 O   2.21986194   1.19782462  -2.17668192
 C   0.74686332  -1.16957869   1.12750212
 H   1.08350138  -0.64318873   2.02881826
 H   1.06543412  -2.21090090   1.18441622
 H  -0.34383947  -1.14498590   1.08184354
 O   0.74997950  -1.16719396  -1.23971593
 H   1.21944652  -0.81842163  -2.00574399
 N   1.37776382   3.07309667  -1.22515983
 H   0.93240349   3.55535848  -0.44759190
 C   1.96306840   3.98571560  -2.17176501
 H   3.04248945   3.79832754  -2.26480340
 C   1.72780270   5.40082422  -1.56616213
 C   1.33517050   3.87987600  -3.56913589
 H   0.32800465   4.30931174  -3.53587975
 H   1.22433666   2.81879130  -3.78268450
 O   2.17174894   6.36661513  -2.19980229
 C   2.19468757   4.53963182  -4.64000121
 H   2.38980905   5.58400267  -4.38841461
 H   3.15890070   4.02982849  -4.66140251
 C   1.57464785   4.46791299  -6.02771284
 H   0.64304730   5.03767001  -6.04996504
 H   2.23379864   4.92872585  -6.76933971
 N   1.21985250   3.10818343  -6.47940913
 H   0.32816422   2.76984053  -6.14601202
 N   3.44788992   2.45866604  -6.71376803
 H   4.09676739   1.81302869  -7.13467038
 H   3.69633740   3.43141969  -6.79190657
 N   1.72578205   0.87007533  -6.84908123
 H   0.76228216   0.71778126  -7.11583838
 H   2.38348348   0.21327588  -7.24248996
 C   2.13445624   2.15507382  -6.70044107
 O   1.11506838   5.41751277  -0.47716924
 H  -2.43573121   3.20145106   5.22108911
