21
conf-197
 N  -0.85479436  -3.16911085   3.46337344
 H   0.11918736  -3.00898782   3.72610325
 H  -1.37200719  -3.49291815   4.27825285
 H  -0.86783282  -3.90367260   2.75147694
 C  -1.47525256  -1.96200297   2.87461998
 H  -1.27755544  -1.09995132   3.51942981
 C  -0.85984764  -1.73675316   1.49718734
 C  -2.98346346  -2.15936612   2.74343443
 H  -3.36478786  -2.46418636   3.72124323
 H  -3.15660718  -2.99281985   2.06388127
 O  -0.63793284  -2.67732423   0.74767097
 C  -3.74908064  -0.93644564   2.25588277
 H  -3.43347943  -0.65399815   1.24589923
 H  -3.57273928  -0.06672090   2.89283917
 C  -5.23216090  -1.18536499   2.18504451
 O  -5.77040835  -2.26252548   2.21371376
 O  -5.92514726  -0.03038387   2.05197831
 N  -0.64651389  -0.43546773   1.17111149
 H  -0.76671844   0.25866974   1.88708591
 C  -0.11489136   0.05036165  -0.09662433
 H  -0.37435543   1.11580744  -0.12920670
 C   1.41082052  -0.05236015  -0.13974895
 C  -0.72091814  -0.61550900  -1.33943648
 H  -0.41935382  -1.65562255  -1.39069352
 H  -1.80580723  -0.58151958  -1.23647091
 O   2.00832928  -1.10017677  -0.35436791
 C  -0.28797386   0.11772124  -2.55779702
 C  -0.92684592   1.31066318  -2.93984249
 H  -1.79978245   1.63103155  -2.37750386
 C   0.85365668  -0.30520202  -3.26549108
 H   1.36407732  -1.20841081  -2.93420724
 C  -0.47218442   2.06956949  -3.98370972
 H  -0.96060006   2.98815757  -4.28253329
 C   1.35458354   0.41568970  -4.31323987
 H   2.24245732   0.11044504  -4.85315597
 O   1.16100780   2.33231996  -5.65682474
 C   0.71815599   1.66361772  -4.72439673
 N   2.06150587   1.11909610   0.10149970
 H   1.53051882   1.96690881   0.01464908
 C   3.50690704   1.26273241  -0.06488720
 H   3.70433924   2.29963700   0.22745192
 C   3.84777782   1.19782702  -1.54171863
 C   4.33189810   0.34322204   0.82679452
 H   3.89769619   0.40575391   1.82669403
 H   4.23976963  -0.69170604   0.50761254
 O   3.48073167   2.02067752  -2.34264251
 C   5.79761266   0.75088682   0.88390424
 H   5.86670521   1.81212267   1.14382023
 H   6.25867411   0.63839840  -0.09965016
 C   6.57693886  -0.06051253   1.90518854
 H   6.13179983   0.06289933   2.89653820
 H   6.51198339  -1.12317813   1.65637810
 C   8.03544475   0.33642097   1.97042250
 H   8.47903157   0.22553198   0.97813687
 H   8.10723954   1.39323471   2.23815077
 N   8.80082701  -0.47647106   2.94815482
 H   9.78423542  -0.20718731   2.99123348
 H   8.76387633  -1.46620881   2.70672625
 H   8.41401551  -0.37830246   3.88622171
 O   4.59987752   0.13656048  -1.88491270
 H  -6.85586820  -0.28399677   1.99273577
 H   4.73612341   0.20751981  -2.83706195
