21
conf-34
 N  -2.15324041   0.82898223   3.55529496
 H  -3.05439656   0.85641186   3.07397540
 H  -2.30291386   0.84274624   4.56253253
 H  -1.61772675   1.65773633   3.28091001
 C  -1.35203650  -0.33079135   3.11512160
 H  -2.00739319  -1.19727653   2.96689189
 C  -0.72635350   0.06407726   1.78012966
 C  -0.25638129  -0.69091699   4.11619234
 H   0.32058382   0.20068289   4.35380284
 H   0.43895989  -1.38992812   3.64985525
 O  -0.44855544   1.24239734   1.54563567
 C  -0.79186296  -1.31669979   5.40103016
 H  -1.34973823  -2.23239887   5.19266492
 H  -1.48427398  -0.64473349   5.91903080
 C   0.30733661  -1.63333857   6.37882216
 O   1.43057478  -1.19944296   6.34284628
 O  -0.11927896  -2.46495503   7.35798328
 N  -0.44316971  -0.93458795   0.91521377
 H  -0.85519916  -1.83758257   1.08899517
 C  -0.16462099  -0.61904299  -0.48344855
 H  -0.58701469   0.37450008  -0.66214103
 C   1.34856376  -0.56511770  -0.70864306
 C  -0.85448635  -1.62710901  -1.41193039
 H  -0.64367819  -1.33818334  -2.44153948
 H  -0.42212107  -2.61332865  -1.25810465
 O   1.92871827  -1.29706238  -1.50052323
 C  -2.31294150  -1.64792185  -1.15246380
 C  -2.90803969  -2.70855617  -0.44693728
 H  -2.29748330  -3.56182358  -0.16437129
 C  -3.10494272  -0.54125932  -1.51573826
 H  -2.62744272   0.28019093  -2.04420131
 C  -4.23103795  -2.68810242  -0.10114017
 H  -4.69598439  -3.49634895   0.44732903
 C  -4.43783319  -0.47636474  -1.21947035
 H  -5.05000567   0.37031874  -1.50181355
 O  -6.26689358  -1.51389324  -0.16432992
 C  -5.07529864  -1.55486900  -0.46885407
 N   2.00289200   0.35393761   0.04602420
 H   1.49049016   0.94830920   0.68445132
 C   3.44043899   0.45693924   0.00689825
 H   3.81836241  -0.42480237  -0.52066381
 C   4.00258349   0.44815716   1.41478969
 C   3.92649716   1.71117667  -0.72991649
 H   3.50287180   2.59599477  -0.24789181
 H   5.01042991   1.77151282  -0.61832805
 O   3.37649016   0.64999176   2.42202539
 C   3.57455166   1.69364320  -2.21061328
 H   2.49212393   1.66105983  -2.34085591
 H   3.96719744   0.76840276  -2.64367461
 C   4.12679965   2.90303607  -2.94610752
 H   3.75828985   3.81107941  -2.45773453
 H   5.21791646   2.92094189  -2.86646115
 C   3.72798894   2.95802243  -4.40808462
 H   2.63952209   2.88092567  -4.47959313
 H   4.00901697   3.92039544  -4.83931173
 N   4.33874077   1.86581359  -5.20899285
 H   4.04482014   1.89453677  -6.18555926
 H   4.07561495   0.95264009  -4.84037431
 H   5.35705368   1.91656554  -5.18689999
 O   5.32906387   0.21022517   1.41292834
 H   0.63725513  -2.59316427   7.94542245
 H   5.60398130   0.24677107   2.33746412
