21
conf-962
 N  -0.23747401  -3.14654331   3.45035389
 H   0.53282297  -2.64784982   3.89932784
 H  -0.73274567  -3.69453051   4.15124592
 H   0.16846088  -3.78493334   2.76261744
 C  -1.15194779  -2.22025289   2.74597329
 H  -1.45822346  -1.42578512   3.43298207
 C  -0.40893158  -1.60710272   1.56130043
 C  -2.39533372  -2.96869650   2.26899558
 H  -2.82113158  -3.47858839   3.13580566
 H  -2.07211511  -3.74044325   1.56762384
 O   0.38741597  -2.25080520   0.90379000
 C  -3.46112996  -2.08516882   1.62843573
 H  -3.10167349  -1.61223623   0.71357232
 H  -3.75449577  -1.28922454   2.31932025
 C  -4.70017812  -2.85522611   1.26839869
 O  -5.22437789  -2.87877089   0.18390078
 O  -5.20470679  -3.53027580   2.32906344
 N  -0.71572131  -0.31141113   1.29334838
 H  -1.46055976   0.12761791   1.80759914
 C  -0.15293166   0.39641755   0.15529640
 H  -0.52204264   1.42294415   0.25966724
 C   1.37771536   0.43389168   0.25676048
 C  -0.61882006  -0.14284270  -1.21068044
 H  -0.09930958  -1.06973115  -1.42917030
 H  -1.68586884  -0.36726667  -1.13160405
 O   2.12810230  -0.00416198  -0.60051744
 C  -0.39982757   0.86828338  -2.27966858
 C  -1.17539400   2.04232506  -2.29282015
 H  -1.95643753   2.15412317  -1.54476160
 C   0.61165641   0.71239454  -3.24613364
 H   1.21756528  -0.19069183  -3.22402683
 C  -0.97310497   3.03100458  -3.21429290
 H  -1.56548163   3.93733707  -3.22816812
 C   0.86568979   1.67429923  -4.18607456
 H   1.64717388   1.56220387  -4.92693176
 O   0.30599633   3.79739989  -5.03409226
 C   0.08671781   2.90591820  -4.20966576
 N   1.85344325   1.00367385   1.39192018
 H   1.25234231   1.27836804   2.15178934
 C   3.26589546   1.26579574   1.56680652
 H   3.82934997   0.33402171   1.44890135
 C   3.44977716   1.74859282   2.99125849
 C   3.85405222   2.27277232   0.55515567
 H   4.88344747   2.48173562   0.85539608
 H   3.90821196   1.77548368  -0.41379325
 O   2.55123970   2.01164508   3.74961201
 C   3.07507926   3.56991950   0.41946380
 H   3.02028912   4.08946025   1.38058154
 H   2.04530140   3.35590343   0.11960335
 C   3.68253826   4.48213639  -0.63223593
 H   4.71626557   4.72313932  -0.37231408
 H   3.70563565   3.95068783  -1.58918203
 C   2.90091914   5.76498560  -0.80931305
 H   1.84776802   5.52199194  -0.97168511
 H   2.95696185   6.35116491   0.11078549
 N   3.38884933   6.57461270  -1.95360803
 H   2.87568481   7.45096475  -2.05514409
 H   3.29101233   6.05910809  -2.82826848
 H   4.37557398   6.80669692  -1.84458701
 O   4.74983375   1.86081516   3.31881926
 H  -5.99933649  -3.97635517   2.01055752
 H   4.77497877   2.17534624   4.23168105
