21
conf-102
 N  -0.69857076  -3.58019606   3.09536117
 H   0.31052282  -3.47691905   3.20683002
 H  -1.08999152  -3.96276331   3.95389296
 H  -0.84321358  -4.24949901   2.33850491
 C  -1.32210488  -2.28950777   2.73152253
 H  -1.10562607  -1.56293474   3.51999254
 C  -0.69105469  -1.82791863   1.41302619
 C  -2.83802896  -2.45565893   2.61229293
 H  -3.18295564  -2.88563693   3.55860967
 H  -3.03238603  -3.19924835   1.83286269
 O  -0.20649484  -2.64400909   0.64080678
 C  -3.64262080  -1.19005310   2.30640446
 H  -4.70685098  -1.42742272   2.27810555
 H  -3.35578162  -0.78820852   1.33147100
 C  -3.38666350  -0.14582497   3.34638245
 O  -2.45564047   0.63027135   3.31569717
 O  -4.26679295  -0.17369733   4.36807757
 N  -0.75329135  -0.50131621   1.16359868
 H  -1.11665266   0.11076622   1.89087728
 C  -0.14216464   0.13797781   0.01738425
 H  -0.58851256   1.14059392  -0.02342398
 C   1.37449070   0.31903513   0.21519600
 C  -0.45899192  -0.55508542  -1.32612428
 H   0.02454792  -1.52519690  -1.35998057
 H  -1.53600583  -0.71450402  -1.35412451
 O   2.07464527  -0.41819950   0.88380254
 C  -0.02515023   0.29283950  -2.47818738
 C   1.16819563   0.01758231  -3.15521159
 H   1.73634464  -0.86495391  -2.87555622
 C  -0.74403763   1.44959149  -2.80889495
 H  -1.67351946   1.64560528  -2.27573923
 C   1.66295457   0.87493989  -4.10354569
 H   2.61300840   0.70481634  -4.59773096
 C  -0.27902943   2.35063457  -3.72897123
 H  -0.81192346   3.26186095  -3.96285826
 O   1.44861804   2.92990623  -5.21740667
 C   0.98097107   2.11775903  -4.41126360
 N   1.89727881   1.40642568  -0.42716887
 H   1.34079156   1.85687199  -1.14115454
 C   3.34077301   1.53297929  -0.55359420
 H   3.75996700   0.55555406  -0.82154316
 C   3.99602831   1.92643017   0.75487639
 C   3.65443643   2.54785698  -1.65416802
 H   2.98549974   2.30344916  -2.48567549
 H   3.38136521   3.54819843  -1.31192129
 O   5.04325053   1.47751259   1.15142971
 C   5.08471915   2.50889770  -2.15603156
 H   5.32718113   1.47837834  -2.43565860
 H   5.78015027   2.78996687  -1.36311102
 C   5.27694980   3.40127346  -3.36947665
 H   4.57595973   3.10052715  -4.15689928
 H   5.03642957   4.43363189  -3.10454046
 C   6.68308994   3.34861510  -3.92280325
 H   7.38777105   3.63760304  -3.13954955
 H   6.91864219   2.31933728  -4.20390351
 N   6.86000673   4.23574815  -5.09983475
 H   7.81052812   4.20521671  -5.47006023
 H   6.65503154   5.20487043  -4.85898196
 H   6.22784206   3.97077089  -5.85438755
 O   3.31176109   2.88140658   1.41459953
 H  -3.99291618   0.51352082   4.98970599
 H   3.81640762   3.06961652   2.21583610
