21
conf-876
 N  -1.14524889  -4.16987335   2.77169395
 H  -0.14293349  -4.35731104   2.76707561
 H  -1.54813003  -4.57142932   3.61634339
 H  -1.53815019  -4.64928730   1.96184058
 C  -1.39574970  -2.72018251   2.67034689
 H  -0.91397978  -2.21899330   3.51863575
 C  -0.73945516  -2.20872198   1.38115597
 C  -2.88246003  -2.38835028   2.69748072
 H  -3.38595011  -2.94682505   1.90956720
 H  -3.00478772  -1.33125387   2.45747874
 O  -0.29832829  -2.98643617   0.54964256
 C  -3.53315110  -2.67955921   4.04453687
 H  -3.02617267  -2.15368596   4.85301381
 H  -3.49380012  -3.74993614   4.27580360
 C  -4.97985601  -2.28103420   4.08686821
 O  -5.51060408  -1.65482138   4.96774226
 O  -5.66212984  -2.73915852   3.01026834
 N  -0.72154374  -0.85471608   1.25007852
 H  -1.00563014  -0.31018684   2.04478479
 C  -0.11377754  -0.11227107   0.15231996
 H  -0.57908738   0.88003849   0.16530939
 C   1.38831237   0.07823573   0.36751661
 C  -0.36046566  -0.72508685  -1.23808477
 H   0.11192999  -1.69884550  -1.29420000
 H  -1.43379596  -0.87129481  -1.34586424
 O   2.18531700  -0.85172012   0.36705802
 C   0.16205531   0.16661408  -2.31659618
 C  -0.61879868   1.20473902  -2.85146324
 H  -1.64954292   1.31026784  -2.52412743
 C   1.49036764   0.03247568  -2.75497995
 H   2.10455254  -0.75067247  -2.31553567
 C  -0.11709345   2.08772264  -3.77846230
 H  -0.71847149   2.89081864  -4.18234663
 C   2.03342595   0.88113365  -3.69041154
 H   3.06955054   0.81019952  -4.00013771
 O   1.73258147   2.76762752  -5.06621499
 C   1.25571088   1.97863858  -4.23964447
 N   1.77978620   1.37182395   0.50135798
 H   1.09726419   2.10613643   0.47628626
 C   3.16997815   1.74206689   0.31713003
 H   3.70580702   0.80981834   0.14015841
 C   3.69596906   2.34188164   1.60181371
 C   3.34188503   2.69476367  -0.85728587
 H   2.73996455   2.32691536  -1.69598043
 H   2.92799870   3.66394548  -0.58196952
 O   3.98403707   3.50938978   1.74909725
 C   4.78887985   2.82445732  -1.30840415
 H   5.09913210   1.87091988  -1.74652244
 H   5.43802203   2.99259827  -0.44534013
 C   4.99852668   3.94111766  -2.32312209
 H   6.04762493   3.96117171  -2.63031217
 H   4.40932170   3.73058554  -3.22781322
 C   4.59883644   5.32032248  -1.80415462
 H   4.92561759   6.08831258  -2.50848222
 H   3.50635349   5.38480121  -1.75434244
 N   5.15313627   5.60605685  -0.45934436
 H   5.06867088   6.59285528  -0.21379669
 H   6.13487685   5.34112057  -0.40533563
 H   4.66406596   5.07572399   0.26278738
 O   3.78698862   1.43245013   2.58469059
 H  -6.57770181  -2.45878826   3.13158233
 H   4.10961394   1.90061159   3.36545773
