21
conf-549
 N  -5.68490650   1.36557089   3.10906642
 H  -6.31305757   1.57174976   2.33330252
 H  -5.74105529   0.36204095   3.28555141
 H  -6.00108505   1.84770579   3.94846176
 C  -4.29096537   1.70797582   2.77631054
 H  -4.23996828   2.74956459   2.43467867
 C  -3.84159659   0.81451322   1.62161528
 C  -3.38524001   1.55174662   4.00707910
 H  -3.63034391   2.35322993   4.70897287
 H  -2.34646167   1.69122414   3.70193155
 O  -4.54930673  -0.07844924   1.18017161
 C  -3.57785170   0.22222455   4.68479845
 C  -4.38512869   0.11935377   5.81594776
 H  -4.83280950   1.01691752   6.22939380
 C  -3.00778374  -0.93887060   4.16909785
 H  -2.36706732  -0.87252418   3.29708014
 C  -4.63332930  -1.11436536   6.41019106
 H  -5.26995326  -1.17098654   7.28537743
 C  -3.24847051  -2.17676264   4.75832449
 H  -2.79372568  -3.06390199   4.33494419
 C  -4.06604931  -2.26851130   5.88042051
 H  -4.25594959  -3.23201283   6.33962800
 N  -2.60093368   1.05922441   1.13710094
 H  -2.08310343   1.87345223   1.42633427
 C  -2.08321660   0.33452643  -0.01453459
 H  -2.42330459  -0.69938126   0.06796107
 C  -0.57259834   0.42282958   0.07330134
 C  -2.58348676   0.93887271  -1.33018584
 H  -3.67317183   0.94133776  -1.29991671
 H  -2.25948095   1.98200563  -1.36443105
 O  -0.01699915   1.51299497   0.20095138
 C  -2.12426817   0.23393411  -2.60861613
 H  -1.02763965   0.27277466  -2.65087850
 C  -2.56653491  -1.22427431  -2.64738225
 H  -3.65227959  -1.29101958  -2.53054365
 H  -2.30154584  -1.67971731  -3.60399086
 H  -2.09861702  -1.82008874  -1.85887722
 C  -2.65868221   0.99450599  -3.81794725
 H  -3.74990437   0.99970622  -3.81379374
 H  -2.31086227   2.03276984  -3.81686433
 H  -2.31945791   0.53170272  -4.74879797
 N   0.11748367  -0.73616654  -0.01444812
 H  -0.37470181  -1.59607520  -0.20224134
 C   1.57446479  -0.72943628  -0.10932701
 H   1.90746024   0.11494364   0.50293798
 C   1.97325337  -0.47136032  -1.56339931
 C   2.17137435  -2.02256506   0.43619508
 H   1.71260302  -2.23866410   1.39927910
 H   1.97403078  -2.84019134  -0.25919446
 O   2.38855184  -1.35392318  -2.30401004
 C   3.66639264  -1.84435069   0.69915986
 N   4.45630397  -1.99682713  -0.39725784
 H   5.39331090  -1.63581856  -0.31273560
 H   4.02469604  -1.94363889  -1.31159907
 O   4.09909675  -1.58603123   1.80822399
 N   1.75861064   0.78745175  -2.00469174
 H   1.59650470   1.50621966  -1.31165057
 C   2.47623304   1.18998299  -3.18039227
 H   2.30196811   0.45651433  -3.97321050
 C   4.05804625   1.16131113  -2.86730064
 C   2.08455604   2.57697006  -3.65745928
 H   2.70164056   2.80957270  -4.52332293
 H   2.32064577   3.32190096  -2.89575192
 O   4.73506357   1.32119593  -3.89137485
 C   0.61361665   2.64951866  -4.02684854
 H   0.38702953   1.86268586  -4.75677741
 H   0.01179183   2.43995730  -3.13835889
 C   0.19414928   3.99099847  -4.61486942
 H   0.61221339   4.12775562  -5.61339146
 H  -0.89155739   4.02763434  -4.71803165
 N   0.56066206   5.14328253  -3.76612256
 H   0.05695145   5.15118962  -2.88998200
 N   2.67338926   5.51803681  -4.71521261
 H   3.66171956   5.62870892  -4.54740963
 H   2.43406727   4.91962382  -5.48828447
 N   2.25659488   6.18693138  -2.52135109
 H   3.02141701   6.84410413  -2.60249375
 H   1.55342244   6.47871699  -1.85439439
 C   1.81628263   5.61596749  -3.67939579
 O   4.35336733   0.98232985  -1.66362632
