21
conf-876
 N  -5.25881403   3.39352278   3.17182437
 H  -6.06336386   3.14557619   2.59559067
 H  -5.12350832   2.62581074   3.82896224
 H  -5.47471472   4.23724194   3.69806218
 C  -4.05304946   3.56468154   2.34108699
 H  -4.26186064   4.29549995   1.55202410
 C  -3.74189628   2.22613554   1.66757549
 C  -2.86128326   4.08549964   3.16236802
 H  -3.17831948   5.01469309   3.64578145
 H  -2.05209334   4.33971791   2.47116720
 O  -4.38649241   1.21487767   1.91600035
 C  -2.35886250   3.10554859   4.18622883
 C  -2.95217261   2.98699795   5.43912325
 H  -3.77050847   3.64876619   5.70787910
 C  -1.27999778   2.26714813   3.88490362
 H  -0.77608042   2.37860209   2.92847648
 C  -2.51636198   2.02487391   6.35024777
 H  -3.00280425   1.94482166   7.31501860
 C  -0.84506420   1.29704195   4.78374125
 H  -0.01902564   0.64890647   4.50506060
 C  -1.46673474   1.17177639   6.02138004
 H  -1.13282382   0.41986130   6.72833902
 N  -2.73469578   2.25673567   0.75815900
 H  -2.12274453   3.05627467   0.72085851
 C  -2.11735160   1.04112921   0.27411209
 H  -2.54107270   0.20241507   0.82991383
 C  -0.62088263   1.14625979   0.56685179
 C  -2.34953279   0.82611709  -1.22269204
 H  -1.93762086   1.68558543  -1.75925109
 H  -1.76959683  -0.04458165  -1.54325396
 O  -0.06800591   2.22865025   0.73640344
 C  -3.81499564   0.63201992  -1.62090861
 H  -4.38339536   1.48727234  -1.25099318
 C  -3.93193852   0.60439584  -3.14198320
 H  -3.36276424  -0.23414211  -3.55192064
 H  -4.97302271   0.49351935  -3.45408942
 H  -3.54526039   1.52670074  -3.58133653
 C  -4.40280802  -0.63941944  -1.01465454
 H  -3.83148582  -1.51210217  -1.34648375
 H  -4.39522746  -0.61713589   0.07533501
 H  -5.43769761  -0.77280523  -1.34091416
 N   0.06233759  -0.02075662   0.58512976
 H  -0.41721549  -0.90801358   0.65249767
 C   1.50628720  -0.01778437   0.63148276
 H   1.81657641   0.66110238   1.43331700
 C   2.08563977   0.51974876  -0.69205467
 C   2.04474213  -1.42631062   0.91000481
 H   1.83318624  -2.05879344   0.04881944
 H   3.12583624  -1.39154020   1.05696035
 O   1.43705590   0.64824726  -1.71813263
 C   1.34024051  -2.05527154   2.09773495
 N   2.07030419  -2.17021935   3.23575861
 H   1.61487596  -2.57156702   4.03648139
 H   3.01201785  -1.83246677   3.30022055
 O   0.18454785  -2.44444386   2.01913965
 N   3.41254164   0.79709765  -0.62270799
 H   4.00901954   0.50704146   0.14032791
 C   4.19155572   1.09304434  -1.78877357
 H   4.01536532   0.34171431  -2.56989872
 C   5.67142530   0.97419158  -1.31918842
 C   3.92682371   2.46641525  -2.40015756
 H   2.87969818   2.48124052  -2.70906640
 H   4.54685804   2.54144495  -3.29395232
 O   6.55289483   1.28854251  -2.11977354
 C   4.20674683   3.60837882  -1.43397357
 H   3.63689979   3.44803217  -0.51451542
 H   5.26358137   3.59887037  -1.15184917
 C   3.83871671   4.97820478  -1.98490128
 H   2.78271449   5.00729425  -2.26734541
 H   3.97439713   5.72306245  -1.19901598
 N   4.67559647   5.41327607  -3.11987430
 H   5.65152778   5.55597464  -2.90347003
 N   3.18596962   4.79660999  -4.81641537
 H   3.11126502   4.45482638  -5.76267264
 H   2.67906776   4.24069701  -4.13848568
 N   5.31642352   5.64083426  -5.34076238
 H   4.96559557   5.82426346  -6.27184638
 H   5.99662251   6.32799623  -5.03441990
 C   4.38473810   5.28071586  -4.41649822
 O   5.80642747   0.52886708  -0.15545428
