21
conf-14
 N  -5.95060135   1.47578725   3.54628304
 H  -6.49805768   2.02770422   2.88468753
 H  -6.16733309   0.48910170   3.38183291
 H  -6.20811857   1.72423328   4.50204875
 C  -4.50658219   1.67836163   3.34103688
 H  -4.29981414   2.75183150   3.31546448
 C  -4.09172410   1.05475349   2.00666437
 C  -3.70984375   1.06343758   4.49087879
 H  -2.64302321   1.20433186   4.29803182
 H  -3.89750218  -0.01192167   4.50526504
 O  -4.76124256   0.18523342   1.46321306
 C  -4.08154928   1.66904227   5.82082953
 C  -3.79119469   3.00280173   6.09471936
 H  -3.27521310   3.58826415   5.34261367
 C  -4.76404657   0.92455513   6.77735662
 H  -5.01118426  -0.11124950   6.56706222
 C  -4.15033599   3.57670118   7.30962908
 H  -3.90522250   4.61477593   7.50433127
 C  -5.14163037   1.49394386   7.98992966
 H  -5.67529989   0.89688208   8.72017591
 C  -4.83099137   2.82296156   8.26096137
 H  -5.11790556   3.26860146   9.20670198
 N  -2.92663098   1.53148410   1.49211187
 H  -2.29765659   2.06454423   2.07490623
 C  -2.25639360   0.89083101   0.37871696
 H  -2.70969914  -0.08791726   0.21437172
 C  -0.79614308   0.72909321   0.79008631
 C  -2.34421264   1.71929715  -0.90585000
 H  -1.93995786   2.71215884  -0.69245289
 H  -1.69067964   1.27062370  -1.65700567
 O  -0.28795513   1.43856048   1.64050302
 C  -3.75166635   1.87339818  -1.48694428
 H  -4.39319509   2.29400282  -0.71221158
 C  -3.71530138   2.85531980  -2.65464658
 H  -3.07122913   2.47593683  -3.45207708
 H  -4.71438752   3.00917318  -3.06885511
 H  -3.33026317   3.82634536  -2.33589642
 C  -4.34174450   0.53633774  -1.92793949
 H  -3.71414663   0.08087824  -2.69987595
 H  -4.43171811  -0.16307230  -1.09625310
 H  -5.33888812   0.68408316  -2.35077184
 N  -0.10517758  -0.25084503   0.13006033
 H  -0.50294942  -0.56456129  -0.74022686
 C   1.34894503  -0.21558944   0.12924827
 H   1.67160202   0.22684355   1.07048840
 C   1.81382290   0.65479638  -1.05381732
 C   1.92931104  -1.63170288   0.01647337
 H   1.46173069  -2.24665580   0.78400258
 H   1.71221217  -2.07430732  -0.95732500
 O   1.14483673   0.75806917  -2.06885887
 C   3.41190689  -1.61051719   0.32396251
 N   4.21839945  -2.27831264  -0.53871963
 H   5.20459976  -2.09286682  -0.45340732
 H   3.84960234  -2.61228142  -1.40835982
 O   3.84094708  -1.02442106   1.30936387
 N   3.01755996   1.27244698  -0.89942494
 H   3.68913659   0.97502377  -0.19914920
 C   3.70589762   1.79660178  -2.04192232
 H   3.29342986   1.36415265  -2.96475081
 C   5.19626678   1.36916222  -1.88598753
 C   3.67366122   3.32194617  -2.15688612
 H   4.35259271   3.59243494  -2.96641991
 H   4.06772079   3.76991909  -1.23922650
 O   5.93354707   1.61063994  -2.84526448
 C   2.27466871   3.85675620  -2.42401820
 H   1.85136002   3.36351893  -3.30202856
 H   1.62486348   3.60485599  -1.58538931
 C   2.26140430   5.35894701  -2.62187659
 H   1.23105376   5.72709798  -2.68773744
 H   2.72723222   5.83637563  -1.75767657
 N   3.02120343   5.71211513  -3.84104616
 H   2.89092912   5.07174482  -4.61016426
 N   3.03749769   7.99263358  -3.33999978
 H   2.93443628   8.92271135  -3.71548243
 H   2.46511468   7.79264755  -2.53438955
 N   3.69902142   7.23826776  -5.46100157
 H   4.18412225   8.11779499  -5.57147297
 H   4.16779923   6.46748194  -5.92120883
 C   3.23773828   6.98136546  -4.20893646
 O   5.49772939   0.81171973  -0.79735057
