21
conf-883
 N  -4.91462999   0.31939331   3.61617387
 H  -5.60560186   0.33523353   2.86309514
 H  -4.48819083  -0.61064951   3.63506236
 H  -5.39433433   0.47870727   4.50063824
 C  -3.83677848   1.31520664   3.39522331
 H  -4.28150977   2.28892087   3.16701932
 C  -3.00061615   0.83450423   2.21883923
 C  -2.95824606   1.41890119   4.64747559
 H  -2.44313658   0.46299000   4.75488124
 H  -3.61985927   1.53767418   5.50963421
 O  -2.57976963  -0.31711412   2.18212268
 C  -1.98200389   2.56389740   4.60843304
 C  -0.80254725   2.47888256   3.86867468
 H  -0.56896095   1.55786457   3.33092650
 C  -2.26206316   3.75650197   5.27801910
 H  -3.17196414   3.83798147   5.85863678
 C   0.06467042   3.56409683   3.77979847
 H   0.94579381   3.47340948   3.15526596
 C  -1.38286885   4.83337757   5.21393628
 H  -1.61598927   5.74691733   5.74966509
 C  -0.21267099   4.73954227   4.46296275
 H   0.46663021   5.58405815   4.40480739
 N  -2.78944744   1.72813107   1.21770990
 H  -2.86165975   2.70951968   1.43024602
 C  -1.91468627   1.36307142   0.11115144
 H  -2.15555170   0.32427309  -0.12345142
 C  -0.44149853   1.42414612   0.54590511
 C  -2.13588410   2.26625747  -1.10084447
 H  -1.98787417   3.29345859  -0.76408063
 H  -1.34705691   2.06244384  -1.83110704
 O   0.03137598   2.43349164   1.07788866
 C  -3.50100524   2.11607863  -1.77834294
 H  -4.27913471   2.21189864  -1.01713781
 C  -3.69518172   3.23476263  -2.79807033
 H  -2.93092262   3.17470876  -3.57743410
 H  -4.67330795   3.16360444  -3.28015866
 H  -3.62363144   4.21819931  -2.32804404
 C  -3.64028978   0.75413100  -2.45052710
 H  -2.89270414   0.64833452  -3.24166883
 H  -3.49950979  -0.06785993  -1.74494702
 H  -4.62880893   0.64137176  -2.90224526
 N   0.27909580   0.29905718   0.31430390
 H  -0.11941819  -0.37974091  -0.31471267
 C   1.72643775   0.37286168   0.31896173
 H   2.01626497   1.06377913   1.11435133
 C   2.22270389   0.93081938  -1.02775965
 C   2.32405474  -1.01720036   0.59351870
 H   3.41572647  -0.95230961   0.62771240
 H   1.95531237  -1.37103344   1.55570034
 O   1.47083039   1.26889391  -1.92580044
 C   1.93885686  -1.95458745  -0.52921145
 N   0.84102711  -2.72811187  -0.27820088
 H   0.61410616  -3.42954947  -0.96434962
 H   0.54418682  -2.88127441   0.66959270
 O   2.49495501  -1.93011460  -1.61300845
 N   3.57117976   1.01504714  -1.12434394
 H   4.18429141   0.55501107  -0.46606614
 C   4.21317682   1.06589395  -2.41265958
 H   3.70693799   0.36562535  -3.09721441
 C   5.65415459   0.52459788  -2.14901625
 C   4.22750993   2.46909364  -3.02095176
 H   4.99579936   3.06393501  -2.51892184
 H   3.26861615   2.92910861  -2.79576933
 O   6.46774300   0.57229571  -3.07525790
 C   4.45684900   2.42209464  -4.52579728
 H   5.35330868   1.84088947  -4.75145723
 H   3.61243153   1.90495414  -4.98296228
 C   4.58946282   3.80173627  -5.15393798
 H   5.49137765   4.29449284  -4.78382100
 H   4.70664668   3.72177956  -6.23857155
 N   3.47967317   4.72694045  -4.85490593
 H   3.56073822   5.21566995  -3.97496260
 N   1.95833279   3.53913919  -6.16228087
 H   1.07872035   3.54782166  -6.65311069
 H   2.73496544   3.15300268  -6.67362252
 N   1.21678400   5.24493537  -4.73044061
 H   0.34000053   5.25746660  -5.23017151
 H   1.46908558   6.12847094  -4.30747558
 C   2.22510471   4.51195310  -5.26861942
 O   5.82218789   0.05926461  -1.00024830
