21
conf-771
 N  -6.53164106   1.01124500   2.79348976
 H  -7.00993889   1.52139527   2.05198461
 H  -6.59371352   0.01721459   2.56678628
 H  -7.00926862   1.15630872   3.68143420
 C  -5.10863588   1.38560071   2.87306964
 H  -5.02082457   2.47722745   2.94200019
 C  -4.42175213   0.94281505   1.58180471
 C  -4.44954210   0.76234068   4.11308607
 H  -4.81987600   1.29322455   4.99437618
 H  -3.37157132   0.92758469   4.06090761
 O  -4.99002394   0.24959928   0.75204142
 C  -4.76886752  -0.70153789   4.24819151
 C  -5.75438986  -1.12782605   5.13631515
 H  -6.25301460  -0.39610807   5.76305437
 C  -4.13749799  -1.65179505   3.45050020
 H  -3.36838183  -1.33057418   2.75696963
 C  -6.11062666  -2.47040975   5.22103365
 H  -6.88269638  -2.77974362   5.91591312
 C  -4.48631870  -2.99695952   3.52930021
 H  -3.98016442  -3.71527548   2.89600642
 C  -5.47700974  -3.41025538   4.41476886
 H  -5.75051246  -4.45745026   4.47661136
 N  -3.14029731   1.34883527   1.42866744
 H  -2.71018170   1.99258647   2.07481964
 C  -2.39821543   1.06757878   0.21199544
 H  -2.61739724   0.03765568  -0.07444791
 C  -0.92403812   1.24308294   0.55989835
 C  -2.82047173   2.00689438  -0.92808596
 H  -3.90111334   1.91531301  -1.04081401
 H  -2.61583198   3.03121149  -0.60746262
 O  -0.55626167   2.14328066   1.29446299
 C  -2.15454539   1.76801370  -2.28554319
 H  -1.07481888   1.88688199  -2.16749908
 C  -2.43800782   0.37056959  -2.82285870
 H  -3.51239438   0.24079430  -2.98113118
 H  -1.92733502   0.21488344  -3.77624350
 H  -2.09669507  -0.41873580  -2.14769964
 C  -2.63220626   2.82554580  -3.27836681
 H  -3.70947733   2.74319048  -3.43491010
 H  -2.41119787   3.83301207  -2.92099291
 H  -2.13667232   2.69653101  -4.24398550
 N  -0.08134508   0.34664626  -0.02560070
 H  -0.43025593  -0.17831718  -0.81033915
 C   1.35452282   0.51976339  -0.04845181
 H   1.60271251   1.45998957   0.44774994
 C   1.79388133   0.54934487  -1.51689075
 C   2.08882398  -0.61580563   0.67015515
 H   1.75469515  -1.58098390   0.29003392
 H   3.16059378  -0.53204675   0.46828502
 O   1.07899940   0.13414828  -2.41775618
 C   1.94264840  -0.53320096   2.18167156
 N   1.65811924  -1.70894501   2.79921207
 H   1.56220573  -1.69768091   3.79979938
 H   1.49768211  -2.55279073   2.28472202
 O   2.12789392   0.50159938   2.79765023
 N   3.03848709   1.03538038  -1.72541761
 H   3.71986016   1.14139003  -0.98527273
 C   3.69142750   0.91855991  -3.00287716
 H   3.49236872  -0.07243944  -3.43846456
 C   5.20912023   1.03502403  -2.67473563
 C   3.23102908   1.99389578  -3.99072188
 H   3.61613558   2.96634060  -3.66674840
 H   2.14794317   2.04265384  -3.91200488
 O   6.00080116   1.01943923  -3.62327319
 C   3.63650730   1.69804379  -5.43044876
 H   4.72000318   1.59140761  -5.50879846
 H   3.19572396   0.74731317  -5.73291116
 C   3.17088034   2.77980298  -6.39071065
 H   3.51003406   3.75708695  -6.03766367
 H   3.61610719   2.64203207  -7.38576281
 N   1.69999417   2.86678893  -6.48492657
 H   1.30209236   3.78110764  -6.33482015
 N   1.53108750   0.94960861  -7.80255770
 H   1.04093603   0.50204113  -8.56151461
 H   2.53517488   0.97230595  -7.90274076
 N  -0.37230020   2.27089173  -7.36744612
 H  -0.92111545   1.46223757  -7.62907316
 H  -0.79323861   2.78671242  -6.60226579
 C   0.96314437   2.02847090  -7.22590674
 O   5.47860213   1.11039872  -1.45580442
