21
conf-879
 N  -4.05115545  -0.97509714   3.75727549
 H  -5.02921073  -0.79570803   3.52468558
 H  -3.72853368  -1.76025987   3.18190275
 H  -3.95352498  -1.19695231   4.74878443
 C  -3.18954636   0.16360300   3.39980069
 H  -3.73494508   1.09938967   3.54373977
 C  -2.79840940   0.00281203   1.93612427
 C  -1.93312524   0.19386144   4.27465947
 H  -1.30399081   1.02638476   3.95124853
 H  -1.36277331  -0.72397973   4.10713738
 O  -2.80465434  -1.09630098   1.39529336
 C  -2.26855983   0.33154459   5.73800343
 C  -2.81798331   1.51471822   6.22806501
 H  -2.97271111   2.34044739   5.54297780
 C  -2.09590271  -0.73610445   6.61299511
 H  -1.68784443  -1.67053818   6.23959969
 C  -3.15977363   1.64054535   7.57069287
 H  -3.57540906   2.57478540   7.93091303
 C  -2.45032283  -0.62471392   7.95454916
 H  -2.31108825  -1.47058265   8.61749128
 C  -2.97994482   0.56769877   8.43855781
 H  -3.25124750   0.65946474   9.48408099
 N  -2.42455076   1.13837575   1.29505137
 H  -2.27805790   1.96976725   1.83920860
 C  -1.79646171   1.06009119  -0.01882433
 H  -2.27414318   0.21353945  -0.51397791
 C  -0.30428016   0.78579051   0.14261850
 C  -2.02692779   2.33215315  -0.81358663
 H  -3.10660175   2.46109251  -0.92009392
 H  -1.65011157   3.17612826  -0.23030781
 O   0.50684655   1.69113862   0.32038290
 C  -1.37964590   2.35506134  -2.20549483
 H  -0.28794908   2.34371884  -2.06779610
 C  -1.75804383   1.13844140  -3.04564026
 H  -2.84268423   1.08429210  -3.18258733
 H  -1.29734270   1.20776608  -4.03499776
 H  -1.41476994   0.20422659  -2.59605710
 C  -1.76298163   3.65053257  -2.91407619
 H  -2.84182212   3.68221106  -3.08256895
 H  -1.48451273   4.52248503  -2.31868808
 H  -1.26560221   3.73256777  -3.88303481
 N   0.05674154  -0.51238075   0.10994926
 H  -0.64914157  -1.23259333   0.06617388
 C   1.45557966  -0.87992034   0.04408985
 H   1.93817391  -0.54090410   0.96423265
 C   2.11643501  -0.15911789  -1.13841737
 C   1.58709500  -2.39490029  -0.11223596
 H   1.15667845  -2.69834289  -1.06450988
 H   2.64098429  -2.67386896  -0.09299581
 O   1.56636041  -0.05343552  -2.22931464
 C   0.81932196  -3.10953489   0.98332357
 N   1.37103325  -3.02842992   2.21806943
 H   0.91533516  -3.51694935   2.96799017
 H   2.27399142  -2.61449266   2.35532427
 O  -0.25041104  -3.66213538   0.77366371
 N   3.35158986   0.34083564  -0.88362955
 H   3.91391420   0.09662897  -0.07786203
 C   4.10775526   1.07191781  -1.85826136
 H   4.33581708   0.43923043  -2.72598827
 C   5.45189017   1.42167341  -1.14692993
 C   3.44953193   2.35748052  -2.35272943
 H   2.51333681   2.11235476  -2.85305417
 H   4.12014665   2.77693831  -3.10323801
 O   6.16347172   2.29243643  -1.67856838
 C   3.20023249   3.35330525  -1.21351514
 H   2.17225947   3.25034918  -0.86523567
 H   3.83714635   3.12856398  -0.35519089
 C   3.48850040   4.78888353  -1.63572662
 H   2.94477082   5.04755224  -2.54964837
 H   3.16184354   5.48062214  -0.85369727
 N   4.93861189   4.94078530  -1.84973006
 H   5.50662418   4.09701111  -1.82337205
 N   4.74254277   7.13481334  -2.59482892
 H   5.19876263   8.02105600  -2.73491233
 H   3.81535437   7.17708463  -2.20507671
 N   6.82708336   6.05556409  -2.60681134
 H   7.27883288   6.95239710  -2.69442600
 H   7.39401306   5.33058927  -2.18433068
 C   5.49969192   6.04911014  -2.32130410
 O   5.69843910   0.76962491  -0.11803838
