21
conf-353
 N  -5.50787446   2.20127105   3.82712090
 H  -5.79401839   2.86029398   3.09975553
 H  -6.10091040   1.37223997   3.75227055
 H  -5.66724796   2.63378204   4.73644103
 C  -4.08843801   1.80743388   3.66611219
 H  -3.47279293   2.70799234   3.59436950
 C  -3.91181848   0.98760002   2.38737681
 C  -3.61651882   0.96491895   4.85831942
 H  -4.27053487   0.09296973   4.90628508
 H  -3.76469414   1.55019812   5.76827945
 O  -4.58132643  -0.03291296   2.18796557
 C  -2.18077491   0.52622981   4.72924550
 C  -1.87558279  -0.64110260   4.02455767
 H  -2.68844844  -1.22228175   3.59666131
 C  -1.13698852   1.28727408   5.25412268
 H  -1.35763317   2.18684048   5.81896575
 C  -0.54907033  -1.03440079   3.84510360
 H  -0.33111907  -1.94032827   3.29570708
 C   0.18851708   0.89736243   5.06996842
 H   0.98345757   1.50597457   5.48674878
 C   0.48818880  -0.26020368   4.35914259
 H   1.51401317  -0.56446312   4.20281559
 N  -2.95428149   1.45574936   1.54466215
 H  -2.32027772   2.16558171   1.87449080
 C  -2.40631585   0.65577364   0.47014462
 H  -2.76569107  -0.37033863   0.58607002
 C  -0.89109358   0.68951556   0.63523208
 C  -2.80046083   1.17948490  -0.90988241
 H  -2.41427422   2.19631470  -1.01641338
 H  -2.29521209   0.56952443  -1.66424274
 O  -0.33681097   1.63111136   1.19499179
 C  -4.30360905   1.18083327  -1.20450832
 H  -4.80200134   1.80209554  -0.45664246
 C  -4.55259985   1.80088509  -2.57607785
 H  -4.06563980   1.20787280  -3.35447892
 H  -5.62107179   1.84466559  -2.80007890
 H  -4.15633091   2.81744769  -2.62337171
 C  -4.89126482  -0.22508843  -1.12907803
 H  -4.39910208  -0.88005106  -1.85493641
 H  -4.77308980  -0.65358090  -0.13456195
 H  -5.95908243  -0.20363091  -1.36179075
 N  -0.20837353  -0.34526369   0.09781475
 H  -0.69485377  -1.01500531  -0.46578255
 C   1.25209219  -0.37091316   0.06922660
 H   1.59143895   0.01213399   1.03345345
 C   1.76014164   0.53450576  -1.05951382
 C   1.76560134  -1.78587485  -0.15735417
 H   1.23219165  -2.25733808  -0.98095144
 H   2.81545074  -1.74528887  -0.44610945
 O   2.15627621   0.09126297  -2.12749249
 C   1.69839911  -2.61771994   1.10653442
 N   1.46864176  -3.94097455   0.92905231
 H   1.45394083  -4.52525840   1.74569919
 H   1.36780505  -4.34853835   0.01865628
 O   1.88683131  -2.13129199   2.21270036
 N   1.73311543   1.86422812  -0.80492174
 H   1.25952597   2.23216241   0.01358100
 C   2.13971466   2.80610757  -1.80808241
 H   3.05459550   2.45514477  -2.29042631
 C   2.38634995   4.15792031  -1.06257468
 C   1.06686688   3.07955087  -2.85226987
 H   0.15775413   3.39459135  -2.32807733
 H   0.85080053   2.16352515  -3.39412706
 O   1.39069928   4.60587188  -0.46353324
 C   1.52604370   4.19199369  -3.78720479
 H   1.83593873   5.05102405  -3.18393278
 H   2.40566276   3.86389875  -4.34883424
 C   0.44637751   4.61365859  -4.76093777
 H  -0.45478195   4.88406117  -4.20537141
 H   0.76577489   5.49646825  -5.32667454
 N   0.13669165   3.48776985  -5.66854429
 H   0.94883513   2.96604021  -5.96768624
 N  -1.66138225   4.62458136  -6.64630924
 H  -2.52694758   4.53239243  -7.15363705
 H  -1.68483138   5.23636294  -5.84758062
 N  -0.86469415   2.61841674  -7.56611965
 H  -1.70181528   2.57132112  -8.12641833
 H  -0.46825918   1.71878325  -7.33017454
 C  -0.81271899   3.58015923  -6.61297189
 O   3.52636891   4.63623126  -1.14295904
