188
190
N          2.26890       -7.23025        3.68352
H          1.25416       -7.33939        3.79091
H          2.66555       -8.14696        3.43127
H          2.76135       -6.80354        4.54187
C          2.60076       -6.28663        2.55848
H          1.92332       -5.43286        2.61361
C          2.41293       -7.10134        1.27262
C          4.05526       -5.83076        2.71877
H          4.71534       -6.70023        2.59637
H          4.27384       -5.12445        1.91516
O          2.83254       -8.26406        1.25121
C          4.34865       -5.18154        4.08651
O          5.09540       -4.17866        4.11470
O          3.80772       -5.73881        5.10154
N          1.77293       -6.47324        0.28315
H          1.47475       -5.50201        0.41318
C          1.28185       -7.15038       -0.90641
H          2.12827       -7.47798       -1.52442
C          0.49330       -6.08988       -1.69085
C          0.42307       -8.42099       -0.57133
H          1.12090       -9.21481       -0.29898
H         -0.08847       -8.73784       -1.48808
O          0.26620       -4.97504       -1.21765
C         -0.56850       -8.19009        0.54393
C         -0.28704       -8.61217        1.85224
H          0.59986       -9.21395        2.03019
C         -1.75774       -7.48658        0.31978
H         -2.03409       -7.18739       -0.68850
C         -1.11424       -8.26825        2.92265
H         -0.91242       -8.61050        3.93507
C         -2.60194       -7.15515        1.37534
H         -3.51214       -6.59387        1.18883
O         -3.00623       -7.11405        3.76098
H         -3.66205       -6.46014        3.46518
C         -2.26032       -7.49692        2.68711
N          0.08392       -6.43152       -2.93439
H          0.14390       -7.39228       -3.24291
C         -0.74971       -5.50788       -3.69525
H         -0.23069       -4.54459       -3.72456
C         -2.12853       -5.35103       -3.02333
C         -0.96785       -6.01878       -5.13358
H         -1.44459       -7.00459       -5.07441
H          0.01038       -6.14276       -5.61327
O         -2.83184       -6.34214       -2.81979
C         -1.83973       -5.06064       -5.91624
C         -3.23599       -5.20407       -5.92460
H         -3.68640       -6.04979       -5.41222
C         -1.28523       -3.95465       -6.56783
H         -0.20544       -3.82149       -6.57947
C         -4.05346       -4.27172       -6.55497
H         -5.13270       -4.38601       -6.57150
C         -2.09101       -3.01272       -7.20727
H         -1.64048       -2.16104       -7.71303
O         -4.33304       -2.28334       -7.79506
H         -3.82111       -1.58858       -8.23774
C         -3.48156       -3.16732       -7.19874
N         -2.47940       -4.07937       -2.75181
H         -1.82409       -3.32448       -2.92862
C         -3.80696       -3.61932       -2.38469
H         -4.47519       -3.77666       -3.24528
C         -3.67640       -2.09861       -2.17683
C         -4.44585       -4.35176       -1.18066
H         -5.51849       -4.11881       -1.17708
H         -4.37836       -5.41973       -1.41011
O         -2.61451       -1.51152       -2.41978
C         -3.87035       -4.08994        0.19638
C         -2.48859       -4.06234        0.43779
H         -1.79203       -4.16588       -0.38463
C         -4.74043       -3.99191        1.29188
H         -5.81567       -4.00176        1.12623
C         -1.99561       -3.98092        1.73997
H         -0.92241       -3.99540        1.90213
C         -4.24967       -3.90674        2.59754
H         -4.94347       -3.82683        3.43070
C         -2.87080       -3.91306        2.82589
H         -2.48453       -3.86844        3.83958
N         -4.78312       -1.45566       -1.75638
H         -5.59594       -1.98839       -1.47920
C         -4.85805        0.00537       -1.62568
H         -4.24322        0.41539       -2.43428
C         -4.25507        0.47088       -0.27659
C         -6.30440        0.46506       -1.76408
H         -6.35626        1.55490       -1.71181
H         -6.71980        0.13437       -2.72095
H         -6.91314        0.07662       -0.94165
O         -4.95031        0.94046        0.61646
N         -2.90311        0.32965       -0.19233
H         -2.40402       -0.13640       -0.94684
C         -2.17305        0.72587        0.99914
H         -2.85265        1.36390        1.56853
C         -0.93247        1.50807        0.57338
C         -1.74715       -0.48130        1.86163
H         -2.66006       -0.96990        2.22171
H         -1.24864       -1.20121        1.20485
O         -0.04574        0.99957       -0.12899
C         -0.81664       -0.14130        3.04364
H          0.07858        0.34839        2.63652
C         -1.45847        0.81629        4.05706
H         -2.37180        0.37933        4.47948
H         -0.76600        1.02854        4.87826
H         -1.72135        1.78230        3.61482
C         -0.34855       -1.42445        3.74355
H         -1.19713       -1.94401        4.20290
H          0.36854       -1.19207        4.53740
H          0.13830       -2.11218        3.04667
N         -0.84030        2.77357        1.04290
H         -1.53833        3.08885        1.70436
C          0.42958        3.50625        1.03567
H          0.86200        3.39497        0.03757
C          1.31257        2.82479        2.09767
C          0.20457        4.97612        1.37144
H          1.14994        5.52385        1.31367
H         -0.17515        5.07449        2.39304
H         -0.50329        5.42525        0.66865
O          1.11125        3.01201        3.29862
N          2.24833        1.96586        1.62596
H          2.25629        1.77504        0.63285
C          3.00719        1.08177        2.51254
H          2.31905        0.73778        3.29510
C          4.16501        1.82568        3.23092
C          3.57427       -0.12853        1.74901
H          4.40449       -0.51892        2.34291
H          4.03737        0.23116        0.81908
O          5.34480        1.53216        3.01344
C          2.65061       -1.27534        1.47775
C          2.77128       -2.58529        1.88539
H          3.50618       -2.98148        2.57434
N          1.56812       -1.27556        0.61164
H          1.08993       -0.46474        0.21185
C          1.09851       -2.55006        0.53676
H          0.26341       -2.82834       -0.08755
N          1.80363       -3.37834        1.29365
N          3.78765        2.71015        4.17816
H          2.79504        2.90361        4.31774
C          4.71861        3.20868        5.19272
H          5.70056        3.33481        4.72572
C          4.79214        2.12195        6.30325
C          4.20074        4.54171        5.76224
H          4.89810        4.84456        6.55775
O          4.36963        2.31062        7.44411
C          4.12019        5.63366        4.70422
H          5.10001        5.81513        4.24919
H          3.41385        5.34799        3.91817
H          3.76494        6.56038        5.16308
O          2.89095        4.35935        6.28839
H          3.00592        3.76115        7.05082
N          5.25476        0.92358        5.86146
H          5.58581        0.86811        4.89986
C          4.85602       -0.35537        6.43775
H          4.84986       -0.26501        7.52876
C          5.90024       -1.36335        5.96345
C          3.43960       -0.80148        5.94145
H          3.48395       -0.77383        4.84295
O          6.31158       -1.28639        4.79343
C          3.10899       -2.24154        6.35775
H          3.13284       -2.35640        7.44934
H          3.79494       -2.97034        5.92411
H          2.09678       -2.49689        6.02463
C          2.34518        0.16349        6.42308
H          2.35754        0.25900        7.51391
H          1.36093       -0.21571        6.12947
H          2.44711        1.16579        6.00381
N          6.32407       -2.30007        6.83688
H          5.83457       -2.37276        7.71954
C          7.08657       -3.46368        6.39326
H          7.00836       -3.46159        5.30956
C          6.39660       -4.79657        6.67652
C          8.56906       -3.41449        6.78751
H          8.64638       -3.27510        7.87247
H          9.00490       -4.39356        6.55876
O          6.91147       -5.84424        6.35367
C          9.35879       -2.29576        6.08327
H         10.31642       -2.15881        6.59864
H          8.82523       -1.34144        6.17288
C          9.70018       -2.55316        4.60519
H         10.21942       -3.51455        4.51099
H         10.37784       -1.76586        4.24942
N          8.49909       -2.58912        3.75941
H          7.67377       -2.05205        4.08508
N          9.39763       -3.84435        2.01990
H          9.30460       -4.62686        1.39044
H         10.32168       -3.46813        2.16786
N          7.09175       -3.62668        2.25177
H          6.97058       -4.02132        1.33054
H          6.29180       -3.69608        2.91098
C          8.32961       -3.35254        2.68661
O          5.15548       -4.65675        7.16218
H          4.57733       -5.31347        6.69135
