75
77
N         -3.91471        2.32329        2.42895
H         -4.81384        1.84406        2.43241
H         -3.94473        3.02642        3.16342
C         -2.81252        1.38798        2.64294
H         -1.91059        1.98803        2.81889
C         -2.52078        0.61534        1.34737
C         -2.92767        0.42100        3.83441
H         -3.25683        0.99383        4.71157
H         -3.68089       -0.35148        3.64371
O         -2.12743       -0.56105        1.37524
C         -1.58150       -0.21003        4.19078
N         -1.63622       -1.42583        4.78067
H         -0.77255       -1.88347        5.03923
H         -2.49131       -1.95899        4.83384
O         -0.51869        0.39337        4.01436
N         -2.63628        1.34184        0.21628
H         -3.01459        2.28106        0.31520
C         -2.23822        0.87269       -1.11362
H         -2.51934       -0.18537       -1.17871
C         -0.68810        0.92244       -1.24791
C         -2.97594        1.64784       -2.23145
H         -2.39738        1.50989       -3.15048
H         -3.94293        1.15883       -2.38670
O         -0.08849        1.66210       -2.03930
C         -3.21907        3.12784       -1.98184
C         -4.50749        3.57299       -1.65181
H         -5.32012        2.85314       -1.58089
C         -2.18925        4.07752       -2.07845
H         -1.18537        3.74355       -2.32044
C         -4.76670        4.92728       -1.43013
H         -5.77422        5.25017       -1.18290
C         -2.44693        5.43036       -1.85685
H         -1.63871        6.15251       -1.93918
C         -3.73588        5.86080       -1.53336
H         -3.93433        6.91561       -1.36527
N         -0.07169        0.09265       -0.38491
H         -0.67898       -0.47436        0.20971
C          1.34382        0.12762       -0.07595
H          1.65943        1.17962       -0.06549
C          2.17817       -0.53317       -1.19366
C          1.55543       -0.48321        1.33528
H          1.80409       -1.54863        1.25538
H          0.61894       -0.41053        1.89339
O          1.64125       -0.89896       -2.25262
C          2.67269        0.19957        2.11851
N          2.38439        0.47263        3.40442
H          3.09249        0.93374        3.96050
H          1.44203        0.37834        3.78075
O          3.76532        0.46136        1.59854
N          3.49780       -0.61981       -0.95618
H          3.85184       -0.25920       -0.05552
C          4.40115       -1.07551       -2.00220
H          3.83339       -1.81048       -2.58513
C          5.60454       -1.84012       -1.46134
C          4.85261        0.08437       -2.93490
H          4.09592        0.87196       -2.85852
H          5.78453        0.51243       -2.55304
O          6.59472       -2.06037       -2.12139
C          5.04921       -0.28097       -4.41455
H          5.37444        0.62348       -4.94303
H          5.85488       -1.01579       -4.51754
C          3.79137       -0.85005       -5.10641
H          3.92194       -0.85578       -6.19432
H          3.62661       -1.89343       -4.82653
N          2.54470       -0.15476       -4.74962
H          2.10537       -0.47567       -3.87155
N          2.70070        1.57519       -6.30862
H          2.31300        2.42099       -6.70121
H          3.21470        0.98903       -6.94987
N          1.16054        1.68794       -4.57098
H          0.80633        2.55852       -4.94088
H          0.84720        1.44641       -3.62190
C          2.13799        1.02720       -5.20589
O          5.43562       -2.26744       -0.19583
H          6.24950       -2.74975        0.04846
