75
77
N         -3.68161       -0.14423        4.05065
H         -4.65896       -0.42754        4.03447
H         -3.13202       -0.98739        3.87535
C         -3.40783        0.79673        2.96002
H         -4.33191        1.32951        2.70889
C         -2.88634        0.06168        1.71153
C         -2.37712        1.87850        3.40075
H         -2.13892        2.54102        2.56474
H         -2.84932        2.47069        4.19172
O         -2.24817       -0.99190        1.83077
C         -1.05468        1.31702        3.91907
N         -1.13091        0.69256        5.11567
H         -0.30746        0.22575        5.47282
H         -2.04606        0.41906        5.46229
O         -0.00198        1.46928        3.29125
N         -3.11416        0.64615        0.51200
H         -3.73097        1.44813        0.47472
C         -2.78449       -0.00176       -0.76625
H         -2.93272       -1.07833       -0.61917
C         -1.29317        0.22306       -1.12911
C         -3.71023        0.50799       -1.88414
H         -3.45910        1.55284       -2.09697
H         -3.46137       -0.05353       -2.79135
O         -0.94981        0.90113       -2.10607
C         -5.18236        0.37110       -1.55424
C         -5.95458        1.50235       -1.25866
H         -5.50097        2.49101       -1.31125
C         -5.79887       -0.88804       -1.51811
H         -5.22066       -1.77857       -1.75647
C         -7.30723        1.38197       -0.92854
H         -7.89152        2.27181       -0.71102
C         -7.14818       -1.01227       -1.18980
H         -7.61100       -1.99510       -1.17295
C         -7.90639        0.12324       -0.89136
H         -8.95879        0.02607       -0.64072
N         -0.43324       -0.35420       -0.27084
H         -0.83667       -0.87643        0.50779
C          1.00505       -0.16368       -0.32753
H          1.18325        0.87577       -0.63337
C          1.61711       -1.02843       -1.45431
C          1.60647       -0.39389        1.08262
H          1.91761       -1.43912        1.19821
H          0.83154       -0.19138        1.82467
O          0.87912       -1.58713       -2.28439
C          2.82258        0.48838        1.36003
N          2.77854        1.17801        2.51409
H          3.55133        1.79860        2.71879
H          1.91060        1.27183        3.04043
O          3.78407        0.53764        0.58033
N          2.95792       -1.07531       -1.50159
H          3.48970       -0.54705       -0.78784
C          3.62892       -1.71156       -2.62576
H          2.97122       -2.53182       -2.93687
C          4.94589       -2.37751       -2.24161
C          3.83339       -0.72955       -3.81632
H          3.10943        0.08219       -3.69096
H          4.82514       -0.27310       -3.74236
O          5.79021       -2.67477       -3.05687
C          3.67840       -1.32869       -5.22310
H          3.86466       -0.52669       -5.94820
H          4.44481       -2.09236       -5.39375
C          2.29977       -1.96430       -5.50667
H          2.17533       -2.15187       -6.57948
H          2.21694       -2.94489       -5.03144
N          1.16005       -1.19204       -4.99259
H          0.94174       -1.36780       -3.99844
N          0.95090        0.27819       -6.79290
H          0.45578        1.03855       -7.23501
H          1.39841       -0.37887       -7.41380
N         -0.21081        0.65835       -4.81847
H         -0.62805        1.48110       -5.22768
H         -0.34940        0.54333       -3.80593
C          0.63673       -0.09289       -5.53029
O          5.05363       -2.62815       -0.92420
H          5.91976       -3.06015       -0.79048
