21
conf-315
 N  -0.84812866  -0.00938437  -3.37560290
 H  -0.04774435  -0.32749864  -2.80484988
 H  -0.53138431   0.72489205  -4.01467374
 H  -1.18545978  -0.80396978  -3.93262993
 C  -1.98167152   0.48517951  -2.56961036
 H  -1.60125787   1.17935427  -1.82041271
 C  -2.66550527  -0.69590024  -1.90633119
 C  -2.97853256   1.23157104  -3.45662571
 H  -3.34965647   0.53907214  -4.21251825
 H  -3.83438795   1.53651142  -2.85018109
 O  -2.99540815  -1.67397569  -2.56232640
 C  -2.34258746   2.43381810  -4.10291612
 C  -1.95605386   3.53054849  -3.33429525
 H  -2.14443452   3.51140921  -2.26494515
 C  -2.07245324   2.44546362  -5.46689521
 H  -2.34904887   1.58636031  -6.06975829
 C  -1.33912615   4.63066217  -3.92103443
 H  -1.05650803   5.47690282  -3.30480385
 C  -1.43959113   3.53495571  -6.05982751
 H  -1.23451506   3.52202884  -7.12368272
 C  -1.07570480   4.63410020  -5.28760447
 H  -0.58908117   5.48669745  -5.74738546
 N  -2.88901892  -0.63639593  -0.56853711
 C  -2.58904419   0.46804598   0.32376271
 H  -3.05473987   1.40547065   0.00503875
 C  -1.09375598   0.76521630   0.42211569
 C  -3.17380306  -0.00871223   1.66597914
 H  -2.62646303   0.39140444   2.51873962
 H  -4.20729374   0.33760716   1.73059686
 O  -0.69437449   1.87978901   0.72124112
 C  -3.13282723  -1.53336625   1.57344389
 H  -2.13065193  -1.90595433   1.80088552
 H  -3.83033695  -2.01812009   2.25537813
 C  -3.46714133  -1.80149290   0.10728315
 H  -4.54575399  -1.85551378  -0.07107098
 H  -3.02594700  -2.71697198  -0.29079756
 N  -0.27130326  -0.27500199   0.14447869
 H  -0.66260549  -1.11622419  -0.22975626
 C   1.15250582  -0.08077746  -0.01056782
 H   1.31274767   0.86315460  -0.54512672
 C   1.59965038  -1.27515679  -0.88769331
 C   1.86817832  -0.05587624   1.32423165
 H   1.70997433  -1.01541415   1.82173058
 H   1.39813313   0.71491893   1.93077400
 O   1.93228025  -2.32015867  -0.31649806
 C   3.35986564   0.21490738   1.16933746
 H   3.80595309  -0.58650253   0.57520330
 H   3.49385725   1.14285717   0.60393981
 C   4.05905086   0.33874501   2.51355331
 H   3.96756346  -0.60244552   3.06434231
 H   3.55237178   1.10433967   3.11002511
 C   5.52371063   0.71736129   2.40648813
 H   5.60992216   1.63292894   1.81488947
 H   5.92829599   0.93731316   3.39591022
 N   6.34243981  -0.34497814   1.76760881
 H   7.32356534  -0.07725988   1.68562530
 H   6.00535821  -0.54980171   0.82773465
 H   6.29869692  -1.21431467   2.29892950
 O   1.50957245  -1.07549141  -2.11235013
