21
conf-879
 N  -4.68038737   1.50482738  -3.76995013
 H  -5.29373873   1.07010043  -3.07518262
 H  -5.07429440   1.33052916  -4.69606291
 H  -4.66263168   2.51435272  -3.59614465
 C  -3.29494965   0.97572656  -3.67409687
 H  -3.31070229  -0.11211336  -3.77401008
 C  -2.72772174   1.35126678  -2.30168950
 C  -2.42314633   1.55705269  -4.78422851
 H  -2.88839373   1.28821038  -5.73671765
 H  -2.44572130   2.64237771  -4.68820094
 O  -2.32449979   2.47976951  -2.07432811
 C  -1.00737798   1.05969869  -4.71529608
 C   0.00716931   1.89742824  -4.25005620
 H  -0.23162978   2.91999878  -3.97731495
 C  -0.70154359  -0.26458214  -5.03136961
 H  -1.48661105  -0.91632140  -5.39361607
 C   1.30274906   1.40630552  -4.08393427
 H   2.07947752   2.04117538  -3.67352261
 C   0.59794523  -0.74575223  -4.87113504
 H   0.81869306  -1.78730741  -5.06959701
 C   1.60004483   0.08514572  -4.39563880
 H   2.59612513  -0.30149683  -4.21786919
 N  -2.72571077   0.39404852  -1.33230430
 C  -2.31551684   0.81464203   0.01715890
 H  -2.83199665   1.73880717   0.28860791
 C  -0.81264364   1.11191177   0.08950051
 C  -2.76532465  -0.36301463   0.90435661
 H  -1.96581212  -1.10535931   0.97696872
 H  -3.01544083  -0.03505364   1.91380498
 O  -0.37152624   2.09092308   0.67281384
 C  -3.94776720  -0.95748252   0.14045879
 H  -4.16552633  -1.98812883   0.41765678
 H  -4.84730429  -0.36148644   0.30343402
 C  -3.51084959  -0.83363511  -1.31884873
 H  -4.34722945  -0.76643167  -2.01584021
 H  -2.89602837  -1.69024738  -1.62472702
 N  -0.01788765   0.18206405  -0.49596612
 H  -0.40752106  -0.55780442  -1.04225561
 C   1.41545703   0.22752622  -0.39103381
 H   1.73127614   1.27344441  -0.33626146
 C   2.02651977  -0.43656678  -1.70102368
 C   1.98633220  -0.57273798   0.78424616
 H   3.07491538  -0.57372804   0.68016930
 H   1.66007904  -1.61009987   0.66951330
 O   3.08530809   0.08410794  -2.07369833
 C   1.59688793  -0.06031074   2.16729496
 H   0.50927986  -0.00704096   2.25136073
 H   1.92108579  -0.80043511   2.90577197
 C   2.20072898   1.29726750   2.50417555
 H   2.07900365   1.97914063   1.65847521
 H   3.27665953   1.19906167   2.66930003
 C   1.54372175   1.94031849   3.71127937
 H   1.90835951   2.96070391   3.84098442
 H   0.46872767   2.00196180   3.51975290
 N   1.75671607   1.17651507   4.96601496
 H   1.24641621   1.58035194   5.75216934
 H   2.74452804   1.14255984   5.21929173
 H   1.43837671   0.21457394   4.86016818
 O   1.40718700  -1.43031443  -2.10662746
