21
conf-102
 N  -3.51710201   0.10530482   4.59408245
 H  -3.88137585  -0.76386611   4.20775841
 H  -4.06163669   0.37595194   5.41031683
 H  -2.55967912  -0.07381467   4.89112351
 C  -3.50213768   1.17164273   3.57424750
 H  -4.52186060   1.36833863   3.23204911
 C  -2.70339331   0.67571365   2.37033294
 C  -2.92952614   2.46262928   4.16866969
 H  -2.85445189   3.23272479   3.39509150
 H  -3.64998270   2.82400711   4.90659014
 O  -1.95590463  -0.29014072   2.45773809
 C  -1.59124387   2.27500327   4.82262768
 C  -1.47160870   2.18653323   6.20764543
 H  -2.36622142   2.24056563   6.81839134
 C  -0.43269493   2.18189299   4.05090638
 H  -0.50456476   2.21467156   2.96917670
 C  -0.22749110   2.02256103   6.81427381
 H  -0.16066964   1.95166432   7.89294435
 C   0.81707550   2.05584466   4.65281374
 H   1.70208404   2.01105329   4.02913150
 C   0.92310819   1.96860229   6.03460309
 H   1.89509035   1.85032452   6.49890431
 N  -2.84885654   1.35145009   1.20365623
 C  -2.15894153   0.86704190   0.00096849
 H  -2.43504813  -0.17327690  -0.20171835
 C  -0.64759884   0.91443269   0.18485269
 C  -2.65826389   1.81249581  -1.10752118
 H  -1.89298012   2.01307282  -1.85732262
 H  -3.51254207   1.35016244  -1.60595585
 O  -0.06725808   1.84002299   0.73941832
 C  -3.10182889   3.05883404  -0.34370058
 H  -2.22855757   3.64861937  -0.05586032
 H  -3.78771262   3.68905124  -0.90662397
 C  -3.74201743   2.46187489   0.90614163
 H  -4.75639954   2.10466305   0.69332101
 H  -3.80812172   3.16773380   1.73311464
 N  -0.00323748  -0.15688610  -0.35321439
 H  -0.36878271  -0.65946264  -1.15535270
 C   1.42361504  -0.27172769  -0.32424976
 H   1.87735522   0.70458105  -0.11802228
 C   1.84582204  -0.79679086  -1.73053263
 C   1.91230638  -1.29638166   0.70175072
 H   2.99615596  -1.38682050   0.59558026
 H   1.47755940  -2.27264990   0.46190372
 O   3.04785593  -0.76990244  -1.99855212
 C   1.52964530  -0.91164418   2.12178288
 H   2.02556370   0.03260100   2.37956950
 H   0.46108401  -0.72450521   2.16907255
 C   1.89334500  -1.97253820   3.14305549
 H   2.97949946  -2.07107364   3.21544669
 H   1.50264369  -2.93846404   2.81093668
 C   1.32322058  -1.67229534   4.51161817
 H   1.68184485  -0.69550709   4.84840244
 H   0.23429596  -1.61519172   4.43780862
 N   1.67738965  -2.71112438   5.51080251
 H   1.29753561  -2.50710457   6.43580030
 H   2.68880885  -2.79633733   5.60360018
 H   1.32138635  -3.62332565   5.22767265
 O   0.89164600  -1.20892466  -2.42911919
