21
conf-962
 N  -4.36641518   2.21893576  -3.40018189
 H  -5.06500220   1.71537967  -2.85077731
 H  -4.66957193   2.23152403  -4.37589758
 H  -4.32745928   3.18974286  -3.07583519
 C  -3.01548013   1.61073002  -3.29818959
 H  -3.08604921   0.56530969  -3.62301944
 C  -2.54729860   1.57359436  -1.83757074
 C  -1.99360295   2.32999272  -4.20258041
 H  -1.00005929   2.20344994  -3.76497350
 H  -1.98816617   1.80607925  -5.16451874
 O  -1.94308207   2.49486254  -1.31159506
 C  -2.28529498   3.78963642  -4.45378553
 C  -2.99327845   4.16584326  -5.59426036
 H  -3.30465751   3.40111371  -6.29757273
 C  -1.88249451   4.78588959  -3.56570503
 H  -1.33391824   4.50991891  -2.67474778
 C  -3.31387466   5.49701766  -5.83469415
 H  -3.87235118   5.76429104  -6.72468372
 C  -2.19837555   6.12177064  -3.79977278
 H  -1.87925514   6.87758040  -3.09177534
 C  -2.91623861   6.48088066  -4.93614105
 H  -3.16237971   7.52044686  -5.11988383
 N  -2.84285187   0.44353981  -1.13559442
 C  -2.25419853   0.26007579   0.19725321
 H  -2.52363725   1.09259964   0.85408564
 C  -0.71888363   0.19887833   0.17160894
 C  -2.85930277  -1.08309978   0.67189670
 H  -2.14952719  -1.89409633   0.48982052
 H  -3.08188182  -1.06929559   1.73867400
 O  -0.04644304   0.57372954   1.11939650
 C  -4.09147530  -1.27829427  -0.21156517
 H  -4.38932170  -2.32214225  -0.30140670
 H  -4.93823780  -0.71096329   0.17794563
 C  -3.65132458  -0.68705875  -1.54721609
 H  -4.47772265  -0.36906017  -2.18426570
 H  -3.04899254  -1.40941609  -2.11494469
 N  -0.19022618  -0.37558374  -0.93753683
 H  -0.70704746  -0.44450560  -1.80393092
 C   1.21986505  -0.37764445  -1.17902241
 H   1.64796119   0.60248674  -0.93170956
 C   1.36988455  -0.60514338  -2.71490955
 C   1.98739702  -1.44155406  -0.40524020
 H   1.85530857  -1.22391613   0.65519761
 H   3.04864692  -1.31981183  -0.63824350
 O   2.50366988  -0.80797262  -3.15096689
 C   1.54094619  -2.86691031  -0.70505236
 H   0.46035841  -2.94398641  -0.57351719
 H   1.74759720  -3.11201749  -1.75178286
 C   2.22571523  -3.86856267   0.20479320
 H   2.01808253  -3.61288648   1.24750998
 H   3.30856832  -3.80950605   0.06824812
 C   1.77523805  -5.28948408  -0.05136264
 H   0.69346162  -5.35135866   0.08906552
 H   1.97933602  -5.54708170  -1.09337682
 N   2.44711595  -6.26638937   0.84148197
 H   2.14554292  -7.22525095   0.66511511
 H   2.25347997  -6.05870392   1.82059542
 H   3.45870027  -6.23508491   0.71920332
 O   0.29553244  -0.50951236  -3.35848521
