21
conf-684
 N  -0.64705368   0.05324821  -3.63917223
 H   0.23585546   0.19005835  -3.07301296
 H  -0.59006481   0.62459214  -4.48378568
 H  -0.74485544  -0.93084090  -3.91334205
 C  -1.84162790   0.41421670  -2.86121709
 H  -1.60230146   1.24857414  -2.20368167
 C  -2.27276528  -0.80016793  -2.04232638
 C  -2.99724839   0.81098726  -3.79675175
 H  -2.67107926   1.65986234  -4.40243175
 H  -3.16594317  -0.03578527  -4.46522377
 O  -2.30239951  -1.90634459  -2.55682360
 C  -4.26012117   1.14344062  -3.04933544
 C  -4.56607115   2.45553334  -2.69130018
 H  -3.90413988   3.26112228  -2.99370107
 C  -5.11895359   0.11934001  -2.64957037
 H  -4.87061576  -0.90525092  -2.91268442
 C  -5.69775725   2.73367781  -1.92952518
 H  -5.90628072   3.75796122  -1.64614978
 C  -6.26574469   0.39923452  -1.91306475
 H  -6.92404930  -0.41074737  -1.61705956
 C  -6.55917497   1.71122611  -1.54459143
 H  -7.44669637   1.93095854  -0.96492504
 N  -2.69150849  -0.59389110  -0.76907539
 C  -2.60045538   0.65230355  -0.03532949
 H  -3.07027662   1.46422070  -0.59351703
 C  -1.14831484   1.06514909   0.20492697
 C  -3.36526154   0.35224354   1.26426404
 H  -2.94315218   0.87768403   2.12021324
 H  -4.39891342   0.68464260   1.13981171
 O  -0.80384568   2.23634640   0.17065807
 C  -3.32068234  -1.17011072   1.39792244
 H  -2.36440267  -1.48521350   1.82483437
 H  -4.11459668  -1.56640762   2.02913150
 C  -3.41412905  -1.64839590  -0.04981661
 H  -4.45417813  -1.70270587  -0.39293527
 H  -2.95185717  -2.61660262  -0.24514753
 N  -0.31156146   0.02757313   0.50423359
 H  -0.66274356  -0.87042947   0.21541101
 C   1.11964150   0.19928162   0.33417025
 H   1.31639365   1.26580981   0.41487157
 C   1.44997315  -0.23282422  -1.12245463
 C   1.91966779  -0.57852076   1.36504895
 H   1.87853243  -0.01319040   2.30006779
 H   2.96644218  -0.59107711   1.04678942
 O   1.68218106  -1.42638026  -1.34357195
 C   1.43598694  -1.99989978   1.60893050
 H   0.42209368  -1.97387915   2.01732161
 H   1.38718020  -2.53743839   0.66215936
 C   2.32212206  -2.75756936   2.58600152
 H   3.36015359  -2.74616380   2.23487993
 H   2.01163347  -3.80613635   2.61970014
 C   2.27957960  -2.20527655   3.99621220
 H   2.67344095  -1.18717037   4.00687654
 H   1.24017211  -2.15472169   4.33177832
 N   3.07274669  -3.03042364   4.94249037
 H   3.05234260  -2.65859384   5.89221508
 H   4.04825498  -3.07803480   4.65206213
 H   2.71816093  -3.98489116   4.97773222
 O   1.37879266   0.68280913  -1.96722231
