21
conf-306
 N  -4.64618655   1.65271851   3.33549514
 H  -5.43955045   1.15631595   2.92407083
 H  -4.99324851   2.26070313   4.07593661
 H  -4.01594028   0.95953347   3.74405456
 C  -3.89373472   2.42406132   2.31835293
 H  -4.59446501   3.03634001   1.75206424
 C  -3.17475428   1.45318764   1.38293470
 C  -2.86510627   3.32953113   3.00102336
 H  -3.39827462   3.97162725   3.70700823
 H  -2.19783590   2.68333667   3.57405810
 O  -2.55588633   0.49737815   1.83686086
 C  -2.08973718   4.15134667   2.00692790
 C  -0.95898223   3.61659665   1.40485416
 H  -0.65959885   2.59744277   1.65372260
 C  -2.52605254   5.41380311   1.61226813
 H  -3.41853794   5.83684921   2.06297460
 C  -0.27131165   4.32473374   0.42721336
 H   0.58263842   3.86271756  -0.05325474
 C  -1.83913892   6.12686528   0.63378997
 H  -2.19515778   7.10413403   0.33126411
 C  -0.70818320   5.57916686   0.03799378
 H  -0.18574561   6.12026860  -0.74368764
 N  -3.23820825   1.68006354   0.04241513
 C  -2.63238739   0.70543130  -0.87200688
 H  -3.05039924  -0.28271675  -0.67211283
 C  -1.10445596   0.60610323  -0.69163429
 C  -2.96114827   1.25011556  -2.28570323
 H  -2.03396417   1.62980484  -2.72084348
 H  -3.36165636   0.47606779  -2.94117063
 O  -0.34422573   1.58091790  -0.64652763
 C  -3.93938414   2.40087224  -2.04228153
 H  -3.86919504   3.17394024  -2.80661159
 H  -4.97037442   2.04067257  -2.01606438
 C  -3.53642700   2.91708202  -0.66677194
 H  -4.30105664   3.50806343  -0.16433683
 H  -2.62099998   3.52070253  -0.74659788
 N  -0.61206862  -0.65087230  -0.69215145
 H  -1.07602550  -1.46401638  -1.07812696
 C   0.80498715  -0.82679086  -0.63434306
 H   1.29193264  -0.09465666  -1.28995184
 C   1.07736201  -2.25976791  -1.18421680
 C   1.39721308  -0.66695762   0.76806488
 H   1.33836789   0.39800182   1.00241162
 H   2.45195803  -0.94533216   0.70665377
 O   2.25063097  -2.63383855  -1.21099312
 C   0.67312293  -1.48495540   1.83644567
 H  -0.25549986  -0.98663914   2.11171295
 H   0.38901400  -2.46056219   1.42654859
 C   1.52615406  -1.70678764   3.07813886
 H   2.44189331  -2.23972718   2.79799678
 H   0.98573458  -2.35148699   3.77603510
 C   1.91176112  -0.43090714   3.79440982
 H   2.51708757   0.19042721   3.13084300
 H   1.01114929   0.13530206   4.04339770
 N   2.68455676  -0.70347765   5.03288789
 H   2.93989438   0.15143926   5.52754710
 H   3.54627910  -1.20500226   4.82218384
 H   2.14642548  -1.28161436   5.67655580
 O   0.05083746  -2.86948553  -1.55747906
