21
conf-102
 N  -7.32225188   1.09484771   5.53395717
 H  -7.56687707   1.99279782   5.12562958
 H  -6.79996130   1.31736757   6.37415353
 C  -6.47862236   0.37262528   4.59688951
 H  -6.04457394  -0.48596214   5.11693310
 C  -5.34703165   1.24165731   4.01718295
 C  -7.35705461  -0.17164889   3.46959055
 H  -8.21651924  -0.65827003   3.93491181
 H  -7.74814010   0.65084815   2.86527617
 O  -5.44408015   2.46151870   3.94443106
 C  -6.65591853  -1.20546174   2.61012517
 N  -7.15329067  -1.37323762   1.36156633
 H  -6.70811314  -2.05576095   0.77428430
 H  -7.93265572  -0.84046087   1.02231438
 O  -5.71653056  -1.86789661   3.03057095
 N  -4.26222339   0.55296499   3.58932303
 H  -4.31551463  -0.45949781   3.53957893
 C  -3.19088284   1.20144754   2.85926185
 H  -3.49350981   2.22574738   2.64280573
 C  -2.99552240   0.45696429   1.54947124
 C  -1.87040719   1.22748336   3.66212680
 H  -1.65478966   0.18358245   3.91840727
 O  -2.89480255  -0.76703050   1.52581652
 C  -2.01974939   2.00128513   4.97976640
 H  -1.10093753   1.85007803   5.55478205
 H  -2.82249775   1.55531197   5.57488274
 C  -0.69689954   1.77524915   2.83999126
 H  -0.95793672   2.72628292   2.36310747
 H   0.16247382   1.95723624   3.48940997
 H  -0.36925838   1.08866716   2.05466269
 C  -2.27021546   3.49530062   4.81476972
 H  -2.35038756   3.97923576   5.78978741
 H  -1.45091998   3.97464376   4.27370250
 H  -3.19705490   3.68867572   4.26942039
 N  -2.91676576   1.21159637   0.42070784
 H  -2.66656720   2.17978194   0.54373072
 C  -2.36918807   0.60613083  -0.79253182
 H  -2.84180491  -0.36873397  -0.89491631
 C  -0.85583930   0.40616538  -0.56003747
 C  -2.64451919   1.47886063  -1.99834831
 H  -2.26060905   1.00468906  -2.90748653
 H  -3.71700622   1.63773575  -2.10175171
 H  -2.14972385   2.44265247  -1.88111214
 O  -0.08620455   1.40417228  -0.50373685
 N  -0.49080087  -0.87301711  -0.29962558
 H  -1.18156458  -1.59818167  -0.38518381
 C   0.83869873  -1.21442454   0.15545898
 H   1.23308384  -0.32977802   0.65938684
 C   1.64264442  -1.53417984  -1.09721611
 C   0.77453975  -2.34986851   1.16053668
 H   0.32600625  -3.22800591   0.67405810
 O   1.70176948  -2.67076364  -1.56818507
 C   2.14322946  -2.69350176   1.71178960
 H   2.81697577  -3.00166519   0.91140541
 H   2.05380379  -3.50025795   2.43922447
 H   2.56321942  -1.81762033   2.20839004
 O  -0.02506410  -1.92578248   2.26475777
 H  -0.91542784  -1.74159317   1.93687358
 N   2.23299902  -0.45802440  -1.66701130
 H   2.01582038   0.44701652  -1.28017760
 C   2.62704789  -0.47685409  -3.05881903
 H   2.14270690  -1.34947999  -3.51313069
 C   4.15575990  -0.63765133  -3.14364083
 C   2.16079457   0.80462333  -3.74419311
 H   2.41683016   0.76239152  -4.80387371
 H   2.68337714   1.65940628  -3.29644693
 O   4.88523228   0.19700827  -3.65419897
 O   0.74873290   0.95089899  -3.65702642
 H   0.54257664   1.30223061  -2.78463852
 N   4.63672283  -1.77811897  -2.59318153
 H   4.04216080  -2.39245183  -2.05398360
 C   6.04960976  -1.94644369  -2.40846097
 H   6.53045986  -2.35566191  -3.30071510
 H   6.53042971  -0.97884698  -2.22450967
 C   6.26239283  -2.88940605  -1.22307796
 O   5.32475732  -3.36912236  -0.60303634
 N   7.54853756  -3.15024103  -0.91492104
 H   8.31152915  -2.66860066  -1.36595963
 C   7.87969909  -3.97775421   0.22727849
 H   7.19657782  -3.73583976   1.04836729
 C   9.29486843  -3.62808886   0.62184896
 C   7.72492552  -5.47237270  -0.10019235
 H   6.75015669  -5.57432265  -0.58065877
 H   8.47716504  -5.75826709  -0.83996944
 O   10.07714407  -3.03614005  -0.07767923
 C   7.78723813  -6.38791389   1.11179205
 H   8.76670852  -6.34624767   1.58768407
 H   7.06362625  -6.03805706   1.85539308
 C   7.47121083  -7.82822832   0.75183154
 H   8.19909118  -8.18986224   0.02036310
 H   6.48673679  -7.88594113   0.27951915
 C   7.49110035  -8.74280649   1.95674475
 H   8.46959048  -8.67599271   2.43834776
 H   6.75165385  -8.39486481   2.68201821
 N   7.20958639  -10.15596921   1.60114603
 H   7.22915522  -10.77212058   2.41442200
 H   7.89547852  -10.50679339   0.93352926
 H   6.29092480  -10.24736555   1.16868183
 O   9.59544781  -4.06917750   1.85853891
 H   10.51787294  -3.83497290   2.01844777
