21
conf-496
 N  -6.75954705   2.77667487   5.73920619
 H  -7.16144869   3.61367446   5.32859651
 H  -6.00478020   3.11527518   6.32479678
 C  -6.20454028   1.97174925   4.66236835
 H  -5.57589051   1.18642545   5.09838609
 C  -5.35489841   2.80331687   3.68825524
 C  -7.31456224   1.27030694   3.87846534
 H  -8.04854052   2.00697830   3.54966640
 H  -6.90309601   0.79270490   2.98757655
 O  -5.43908253   4.02111778   3.62329711
 C  -7.98426976   0.16453103   4.68587707
 N  -9.30665016  -0.01726163   4.42358301
 H  -9.78572672  -0.74051116   4.93167333
 H  -9.81170079   0.56539601   3.78297622
 O  -7.37211751  -0.53962308   5.46888954
 N  -4.54794270   2.08391993   2.87004557
 H  -4.45595427   1.08720876   2.98633161
 C  -3.64288009   2.73928319   1.93854463
 H  -4.20414560   3.54283437   1.45880310
 C  -3.26350994   1.69843347   0.90171277
 C  -2.42355266   3.39207345   2.63857907
 H  -2.85241015   4.23982351   3.17855120
 O  -2.76823014   0.61917259   1.23549224
 C  -1.38534053   3.93265090   1.64922179
 H  -0.95040006   3.10182692   1.09072518
 H  -0.57185217   4.35668059   2.24590536
 C  -1.72081967   2.48801414   3.65023510
 H  -1.24188017   1.65282287   3.14350420
 H  -0.94756115   3.05549178   4.17040502
 H  -2.40838842   2.09279063   4.39917272
 C  -1.89262178   5.01551922   0.70596867
 H  -1.07979060   5.38276611   0.07623606
 H  -2.67283224   4.65376555   0.03438060
 H  -2.29765272   5.86340501   1.26406740
 N  -3.52710369   1.99206764  -0.39109076
 H  -3.75678973   2.94255351  -0.63012751
 C  -2.96188834   1.17063479  -1.45861448
 H  -3.23277711   0.13361021  -1.24419053
 C  -1.44441769   1.30737478  -1.43205515
 C  -3.51859686   1.62579841  -2.79615648
 H  -3.12428466   1.01149606  -3.60872739
 H  -4.60716456   1.54968178  -2.79479366
 H  -3.23376148   2.66264286  -2.97948372
 O  -0.89865595   2.41146005  -1.43064457
 N  -0.75500225   0.14570706  -1.38330950
 H  -1.23559967  -0.73909890  -1.41483636
 C   0.66094152   0.10576997  -1.10225024
 H   1.06103756   1.09576477  -1.31396468
 C   1.26889332  -0.97474803  -1.98472303
 C   0.92835886  -0.21677016   0.39250797
 H   0.59886065  -1.25014569   0.56718906
 O   0.71241201  -2.04392917  -2.14984119
 C   2.37478144  -0.03241798   0.79462172
 H   3.03400364  -0.69627722   0.24489549
 H   2.48462827  -0.23167387   1.86170876
 H   2.66675666   1.00417605   0.60351479
 O   0.17998500   0.66452861   1.20792434
 H  -0.75791705   0.43999399   1.12413053
 N   2.46489195  -0.67037616  -2.57005390
 H   2.97280729   0.10740291  -2.18047589
 C   3.28152765  -1.75215098  -3.08434447
 H   2.61928760  -2.45391065  -3.59010894
 C   4.03162827  -2.46175252  -1.94352833
 C   4.30405968  -1.20941505  -4.06056908
 H   5.00684438  -0.56001433  -3.52177507
 H   3.80019133  -0.63895314  -4.84530081
 O   4.57961223  -1.82581540  -1.04754274
 O   4.98392232  -2.32551998  -4.61905169
 H   5.87307294  -2.04381028  -4.86795140
 N   4.08454250  -3.81382378  -2.04822141
 H   3.79267278  -4.22676925  -2.91726231
 C   4.99265927  -4.54938761  -1.20506692
 H   5.01478409  -4.05333738  -0.23538832
 H   4.62960268  -5.56592146  -1.05750387
 C   6.44030676  -4.66270080  -1.68598779
 O   7.23159162  -5.37427408  -1.08858139
 N   6.77345415  -3.93413513  -2.78041954
 H   6.04857868  -3.47674215  -3.31278107
 C   8.09195441  -4.03952670  -3.36670676
 H   8.74401216  -4.51244040  -2.63008658
 C   8.69339962  -2.68687797  -3.67758915
 C   8.09008795  -4.88265553  -4.64786182
 H   7.31550075  -4.49925763  -5.31821291
 H   9.05214908  -4.74306620  -5.14601976
 O   9.86553993  -2.42559444  -3.64160135
 C   7.86213537  -6.36129880  -4.37546395
 H   8.65923443  -6.72802043  -3.71692948
 H   6.93173061  -6.49142488  -3.82959069
 C   7.84907431  -7.18292880  -5.65336940
 H   8.78513822  -7.01507976  -6.19584071
 H   7.03999514  -6.83332677  -6.30174018
 C   7.69697935  -8.67348353  -5.42041255
 H   7.85863401  -9.21778665  -6.35246755
 H   8.46914663  -9.00369560  -4.72022394
 N   6.36439994  -9.03214102  -4.86965320
 H   6.27944306  -10.03277580  -4.68940054
 H   5.61649245  -8.76502031  -5.50941792
 H   6.19159442  -8.54935566  -3.98845269
 O   7.76302075  -1.78453331  -4.08549409
 H   8.25767910  -0.97717126  -4.28264413
