21
conf-156
 N  -7.02100235  -0.74518212   5.31063060
 H  -7.54355677   0.05108705   4.95595991
 H  -6.65510949  -0.44552086   6.20761900
 C  -5.92888242  -1.02922466   4.39509048
 H  -5.24754493  -1.73367510   4.88017839
 C  -5.14822685   0.23290997   3.98390888
 C  -6.49740667  -1.72318369   3.15609788
 H  -7.15378419  -2.52279750   3.50403446
 H  -7.11676005  -1.02920227   2.58242374
 O  -5.66895741   1.34280943   4.00160763
 C  -5.42460806  -2.35621157   2.29242501
 N  -5.73472479  -2.52302030   0.98502232
 H  -5.03531225  -2.93802571   0.39540316
 H  -6.62029823  -2.24210620   0.60703220
 O  -4.35205915  -2.71599962   2.75917912
 N  -3.86883003   0.01777080   3.59327743
 H  -3.54538063  -0.93535629   3.45495437
 C  -3.06296464   1.07807815   3.01886157
 H  -3.70268251   1.94942630   2.87345036
 C  -2.54375159   0.60156035   1.66976206
 C  -1.88422323   1.48118812   3.93721437
 H  -1.31525418   0.56188001   4.11234899
 O  -2.06101485  -0.51049154   1.52068003
 C  -2.36644143   1.98523791   5.30527647
 H  -1.48253986   2.10482587   5.93939297
 H  -2.97488824   1.21122243   5.78295428
 C  -0.95744813   2.50910513   3.27678108
 H  -1.52011090   3.37902382   2.92170091
 H  -0.21263564   2.86276356   3.99229760
 H  -0.41445925   2.10497945   2.41612365
 C  -3.13892595   3.29843298   5.26919893
 H  -3.44294515   3.58933492   6.27626769
 H  -2.52510621   4.10552993   4.86278571
 H  -4.04168088   3.21763222   4.65911221
 N  -2.63098774   1.50569686   0.65073030
 H  -2.77416584   2.46878259   0.90883218
 C  -1.85346806   1.30304464  -0.56491819
 H  -1.86269005   0.23218171  -0.76465531
 C  -0.40821060   1.79019580  -0.32935094
 C  -2.45401680   2.08752664  -1.71930527
 H  -1.89656670   1.89081206  -2.63974899
 H  -3.49557766   1.80216450  -1.86270939
 H  -2.40027850   3.15794413  -1.51564711
 O  -0.19207849   2.98522220  -0.01894957
 N   0.55163659   0.84170976  -0.50365789
 H   0.26401460  -0.12324940  -0.52120698
 C   1.95900486   1.13966906  -0.28979283
 H   2.00140611   2.00603766   0.37696806
 C   2.59304689   1.49234574  -1.63805820
 C   2.66072301  -0.02761143   0.39195996
 H   2.67828504  -0.87351739  -0.30646354
 O   3.35156246   0.72892652  -2.24025537
 C   4.06909646   0.31343318   0.84628824
 H   4.70183494   0.57127874  -0.00039369
 H   4.51047414  -0.54004120   1.36476898
 H   4.02951427   1.15900957   1.53527253
 O   1.87175099  -0.35588221   1.54215475
 H   2.27028248  -1.12446038   1.95779094
 N   2.25771763   2.69524674  -2.14816270
 H   1.54418799   3.24549969  -1.68669246
 C   2.71637230   3.07995035  -3.47030538
 H   2.82767982   2.15611514  -4.04656759
 C   4.08219835   3.77377279  -3.37176017
 C   1.71481365   3.98855047  -4.15041441
 H   2.13165227   4.33299075  -5.10041944
 H   1.53956011   4.86786972  -3.51887381
 O   4.25588378   4.94326922  -3.67138701
 O   0.52594936   3.22624156  -4.34800164
 H  -0.09387185   3.76850887  -4.84183720
 N   5.09235514   2.97964884  -2.93337087
 H   4.91158748   2.01187092  -2.69889287
 C   6.41952062   3.51152735  -2.78719269
 H   6.34122242   4.59977593  -2.74985452
 H   6.87567255   3.17322819  -1.85613590
 C   7.41291370   3.16673822  -3.89751378
 O   8.61397626   3.30388156  -3.71994836
 N   6.87599176   2.73770643  -5.06341647
 H   5.88119618   2.63548007  -5.15020345
 C   7.71791150   2.49639054  -6.21314738
 H   8.67761738   2.98006443  -6.01616137
 C   7.15597842   3.11727168  -7.47542873
 C   7.98309115   1.00432992  -6.45768491
 H   7.04533030   0.48400495  -6.66357349
 H   8.59846551   0.93277946  -7.35742616
 O   7.82321049   3.48040111  -8.40754529
 C   8.70846324   0.35092763  -5.28861366
 H   9.55808238   0.97806265  -5.01266092
 H   8.05039466   0.31806910  -4.42048739
 C   9.18372570  -1.05530672  -5.60621944
 H   9.90331405  -1.01886475  -6.43056257
 H   8.33652036  -1.65633003  -5.95087615
 C   9.81746975  -1.75744304  -4.41938647
 H   9.06718414  -1.88135155  -3.63433702
 H   10.14749412  -2.75691834  -4.70752757
 N   10.96758732  -0.99473878  -3.86667464
 H   11.52831657  -1.55366443  -3.22329800
 H   10.64907752  -0.17132590  -3.35848779
 H   11.57280169  -0.66858348  -4.61808863
 O   5.80351029   3.17253331  -7.47214277
 H   5.53782668   3.55622480  -8.31795014
