59
61
N         -3.70279        2.02098        1.92385
H         -4.22020        1.15005        2.03943
H         -4.24820        2.73874        2.39971
C         -3.64182        2.36000        0.49393
H         -4.64114        2.43374        0.03768
C         -2.89235        1.23703       -0.23060
C         -2.97013        3.74875        0.31632
H         -2.97809        4.01474       -0.74414
H         -3.61487        4.47909        0.81967
O         -2.14818        0.45100        0.39366
C         -1.56233        3.85492        0.84926
C         -1.31962        4.37202        2.12916
H         -2.15383        4.71088        2.73774
C         -0.47496        3.44140        0.06816
H         -0.63587        3.03087       -0.92423
C         -0.01703        4.46507        2.62864
H          0.15511        4.87833        3.61821
C          0.82729        3.54378        0.56031
H          1.65985        3.23935       -0.06632
C          1.06253        4.04980        1.84199
H          2.07733        4.13920        2.21806
N         -3.06935        1.08027       -1.54896
C         -2.35758       -0.00568       -2.24596
H         -2.62997       -0.96162       -1.78881
C         -0.84025        0.21024       -2.14195
C         -2.85800        0.10985       -3.70232
H         -2.09266       -0.19099       -4.42136
H         -3.72707       -0.54153       -3.84180
O         -0.33404        1.31863       -2.30231
C         -3.25842        1.58548       -3.83341
H         -2.36571        2.20140       -3.97184
H         -3.95009        1.77150       -4.65812
C         -3.88457        1.89420       -2.47098
H         -4.93310        1.57302       -2.42489
H         -3.83414        2.95239       -2.21650
N         -0.12773       -0.91484       -1.90971
H         -0.61033       -1.78548       -1.73893
C          1.31389       -0.89783       -1.69321
H          1.78649       -0.38527       -2.53861
C          1.88714       -2.30884       -1.66506
C          1.71507       -0.14927       -0.40171
H          1.50423        0.91029       -0.56460
H          2.79601       -0.26493       -0.27432
O          3.05570       -2.54521       -1.48253
C          0.95138       -0.63257        0.83403
H         -0.11773       -0.54182        0.62520
H          1.14514       -1.69820        1.01437
C          1.31608        0.16701        2.09834
H          1.60160        1.19180        1.83122
H          2.19145       -0.27258        2.58816
C          0.18916        0.23972        3.12802
H         -0.28416       -0.73342        3.28375
H          0.54684        0.61021        4.09197
N         -0.88704        1.18443        2.66983
H         -1.67531        1.26479        3.31828
H         -1.34699        0.91106        1.75528
H         -0.52135        2.13835        2.55252
O          0.94915       -3.27270       -1.83737
H          1.41567       -4.12994       -1.80273
