75
77
N         -4.52450        0.62486        3.64794
H         -4.88700        0.27594        2.72432
H         -4.05238       -0.27382        4.15953
H         -5.23384        1.10971        4.20773
C         -3.32307        1.49122        3.27334
H         -3.56922        2.54988        3.37940
C         -3.05474        1.11569        1.79075
C         -2.10413        1.09479        4.14965
H         -1.20474        1.59160        3.78709
H         -2.28681        1.40386        5.18397
O         -3.80967        0.29689        1.22587
C         -1.92705       -0.43144        4.12981
N         -0.73721       -0.88855        3.78712
H         -0.52777       -1.88329        3.65150
H         -0.03026       -0.25174        3.40560
O         -2.93637       -1.16064        4.42056
N         -1.95520        1.66878        1.23322
H         -1.32576        2.23176        1.80536
C         -1.22601        0.94422        0.17378
H         -1.91088        0.20962       -0.25178
C         -0.02855        0.31272        0.90315
C         -0.63151        1.88961       -0.90610
H          0.16116        2.49749       -0.44575
H         -0.12812        1.25484       -1.64532
O          0.40017        0.84820        1.97012
C         -1.66155        2.75430       -1.59837
C         -1.99957        2.52636       -2.93778
H         -1.55771        1.68757       -3.46500
C         -2.24350        3.84813       -0.93535
H         -1.98823        4.03689        0.09976
C         -2.88111        3.38133       -3.61136
H         -3.13334        3.18837       -4.64777
C         -3.12186        4.70353       -1.60196
H         -3.55724        5.54741       -1.07936
C         -3.43827        4.47708       -2.94705
H         -4.11749        5.14221       -3.46632
N          0.59319       -0.71191        0.31339
H          0.25798       -1.08815       -0.56994
C          1.93022       -1.14786        0.79593
H          1.96569       -0.88278        1.85243
C          2.98415       -0.34534       -0.00817
C          2.10600       -2.64635        0.62570
H          3.16369       -2.88843        0.78121
H          1.87296       -2.95176       -0.40066
O          3.80356       -0.91725       -0.75143
C          1.23704       -3.40609        1.63326
N          1.16976       -4.74296        1.42945
H          0.64600       -5.31467        2.08485
H          1.67230       -5.20436        0.67991
O          0.65637       -2.83131        2.57613
N          2.85663        0.99242        0.14543
H          2.19018        1.40400        0.80029
C          3.58891        1.97677       -0.65926
H          4.66640        1.90946       -0.49653
C          3.07997        3.38046       -0.29691
C          3.27002        1.76660       -2.18100
H          3.54423        0.73441       -2.41094
H          2.18220        1.87117       -2.28464
O          3.81307        4.35604       -0.65581
C          4.01127        2.75322       -3.12970
H          4.73187        3.33787       -2.55102
H          4.55695        2.19725       -3.89930
C          3.06296        3.74562       -3.85232
H          3.63400        4.34554       -4.56888
H          2.28486        3.19467       -4.39239
N          2.41459        4.63057       -2.85299
H          3.00453        4.82774       -2.00354
N          0.28366        4.73755       -3.81177
H         -0.71367        4.58085       -3.70323
H          0.66251        4.83283       -4.74545
N          0.58686        5.07003       -1.51701
H         -0.37385        5.38351       -1.43797
C          1.09793        4.81610       -2.72964
O          1.87065        3.46494        0.16833
H          1.08614        4.66176       -0.67512
