21
conf-222
 N  -1.47605102  -3.56862208   3.46106704
 H  -1.41207292  -4.09242288   2.58659881
 H  -1.45698211  -4.22295046   4.24050104
 H  -2.37179715  -3.07400788   3.47079248
 C  -0.40424956  -2.55445210   3.58694577
 H   0.55753167  -3.00644826   3.32258708
 C  -0.72114352  -1.40198823   2.63713426
 C  -0.33869614  -2.04456952   5.02643835
 H  -0.21034684  -2.91149513   5.67738659
 H  -1.30392334  -1.59614292   5.26517563
 O  -1.85808151  -0.94304680   2.57162117
 C   0.78247111  -1.04179199   5.28331961
 H   0.64023277  -0.12532509   4.70892936
 H   1.74360140  -1.47083717   4.98381067
 C   0.88661655  -0.64391173   6.72927343
 O   0.91940330   0.48586675   7.14402602
 O   0.96817195  -1.71940017   7.54743335
 N   0.31115360  -0.91621033   1.91393010
 H   1.25922531  -1.25103932   2.01971911
 C   0.19709795   0.27908339   1.10723953
 H  -0.29360056   1.06344625   1.69777607
 C   1.63529536   0.69894258   0.79411336
 C  -0.64935607   0.08623369  -0.16836078
 H  -1.65617265  -0.16945046   0.15975686
 H  -0.70241674   1.05291298  -0.67714321
 O   2.58944851  -0.02132241   1.03280989
 C  -0.12490894  -0.97304504  -1.09639426
 C   0.79567627  -0.67403228  -2.10427341
 H   1.12170168   0.35169114  -2.24055193
 C  -0.54061920  -2.30075426  -0.96555110
 H  -1.26677749  -2.55286450  -0.20395919
 C   1.30450014  -1.66415050  -2.94015909
 H   2.01446897  -1.42844857  -3.72031132
 C  -0.03752957  -3.30204254  -1.79348874
 H  -0.37460747  -4.32499589  -1.66582199
 O   1.41978015  -3.91277309  -3.62747593
 H   1.05336223  -4.77515885  -3.41698981
 C   0.88802762  -2.98120555  -2.78124959
 N   1.77535505   1.90111617   0.18935864
 H   1.08136703   2.63764771   0.23609118
 C   3.09065774   2.45560719  -0.00791823
 H   3.71435121   2.23446971   0.87042997
 C   2.87821888   3.99020560  -0.11416973
 C   3.78275702   1.88972962  -1.24640181
 H   3.61722280   0.80924578  -1.23885793
 H   3.29983557   2.29283644  -2.14321305
 O   3.87837890   4.68532972  -0.33597283
 C   5.27549096   2.19106551  -1.27181621
 H   5.73884921   1.70280123  -0.40690161
 H   5.43036119   3.26371048  -1.14242970
 C   5.93759677   1.68991240  -2.54309825
 H   5.71733818   0.62499396  -2.66673187
 H   5.50430038   2.20435310  -3.40667550
 C   7.44373085   1.87015155  -2.55291529
 H   7.86062632   1.40531028  -1.65509588
 H   7.88088712   1.35649754  -3.41072926
 N   7.84361229   3.30038180  -2.58304191
 H   8.85376846   3.42064014  -2.50631381
 H   7.41419719   3.81064991  -1.81116171
 H   7.53922377   3.75257900  -3.44510866
 O   1.70588535   4.38061524   0.06361578
 H   1.05004946  -1.37084158   8.44381902
