21
conf-879
 N  -1.67951551  -3.46869359   3.61398262
 H  -0.92175658  -3.38939016   4.29203851
 H  -2.47531529  -3.94305988   4.03384383
 H  -1.32629479  -4.02694814   2.83351589
 C  -2.04704964  -2.14839084   3.06658512
 H  -1.94842111  -1.38584296   3.84663275
 C  -1.06841296  -1.83167747   1.93398778
 C  -3.48505337  -2.13859455   2.54847442
 H  -3.72516111  -1.14275468   2.17468151
 H  -4.15418187  -2.33187669   3.39028167
 O  -0.43883474  -2.73189043   1.38787678
 C  -3.72462935  -3.16628560   1.44930416
 H  -3.54297712  -4.18190712   1.80476232
 H  -3.03104386  -2.98824467   0.62201964
 C  -5.12280096  -3.12312397   0.90317120
 O  -5.84333258  -4.07513991   0.74622258
 O  -5.49961203  -1.86668823   0.56508492
 N  -1.00258550  -0.53444719   1.55843935
 H  -1.52726255   0.13872903   2.08964118
 C  -0.22929783  -0.02188759   0.41996187
 H  -0.46108505   1.04044792   0.36739506
 C   1.27705402  -0.08188505   0.69118230
 C  -0.62407061  -0.69622794  -0.90634808
 H  -0.35585333  -1.74598007  -0.84976213
 H  -1.71032359  -0.64591567  -0.98676659
 O   1.92847964   0.92249708   0.92493382
 C   0.01498558  -0.06587103  -2.11327375
 C  -0.58483272   1.00874244  -2.77250061
 H  -1.54425935   1.37847743  -2.42947562
 C   1.24353609  -0.52134529  -2.60841062
 H   1.74837194  -1.35050268  -2.11710210
 C   0.01498529   1.61716171  -3.87066431
 H  -0.45939662   2.45054973  -4.37326763
 C   1.85826926   0.08078367  -3.70489002
 H   2.81274797  -0.29315816  -4.05847325
 O   1.78578158   1.78903534  -5.41522545
 H   2.62451245   1.37505581  -5.63287734
 C   1.24052731   1.15357244  -4.33565693
 N   1.84396443  -1.31184367   0.60829128
 H   1.27004183  -2.14599043   0.64044382
 C   3.27184625  -1.48317325   0.64405209
 H   3.72882644  -0.61793698   0.15393678
 C   3.51872258  -2.77707240  -0.19849224
 C   3.79602732  -1.64206868   2.05361275
 H   3.47373191  -0.77070824   2.62329348
 H   3.33461717  -2.52656600   2.50216499
 O   3.38727057  -3.85485155   0.40453778
 C   5.31570443  -1.76648770   2.08671277
 H   5.75094793  -0.90935058   1.56504057
 H   5.62754424  -2.66083155   1.53705518
 C   5.85397773  -1.81859734   3.50480954
 H   5.53255752  -0.92930449   4.05355169
 H   5.43408419  -2.68424295   4.02388611
 C   7.36335694  -1.90364524   3.55042972
 H   7.68823562  -2.78871777   2.99840297
 H   7.78584996  -1.03423406   3.04110468
 N   7.88511211  -1.96612213   4.93850512
 H   8.90326175  -2.02864627   4.96827737
 H   7.51289425  -2.77734115   5.43100308
 H   7.61270163  -1.13851995   5.46778543
 O   3.76127155  -2.57593569  -1.40048492
 H  -6.39358180  -1.94067657   0.20776350
