21
conf-197
 N  -0.37353639  -3.37978630   3.16508342
 H   0.52995660  -3.01330956   3.47069658
 H  -0.77245237  -3.94554183   3.91176101
 H  -0.20885901  -3.97812607   2.35170994
 C  -1.29713129  -2.29807669   2.75431381
 H  -1.31316534  -1.52294511   3.52666321
 C  -0.79185799  -1.71559931   1.44066639
 C  -2.70760143  -2.85058013   2.56055897
 H  -2.97598181  -3.39602034   3.46974772
 H  -2.67701431  -3.57455756   1.74585130
 O  -0.41908317  -2.44754061   0.53321941
 C  -3.76066228  -1.78825860   2.26394883
 H  -3.52631178  -1.27745130   1.32323261
 H  -3.80411460  -1.02989463   3.04663019
 C  -5.14063796  -2.36259414   2.11640192
 O  -6.13566088  -1.94198189   2.64830272
 O  -5.15996965  -3.41978326   1.27183079
 N  -0.84518038  -0.36107495   1.35324886
 H  -1.07170633   0.15773377   2.18395258
 C  -0.43582562   0.43972782   0.20393646
 H  -0.87346571   1.42598298   0.37673689
 C   1.08498413   0.60684582   0.17629268
 C  -0.94784028  -0.07907499  -1.14007939
 H  -0.50736929  -1.04673429  -1.35535602
 H  -2.02504145  -0.22024543  -1.04468605
 O   1.83844866  -0.22409815  -0.31312667
 C  -0.62665485   0.89997116  -2.23703179
 C  -1.41192410   2.03272135  -2.45956358
 H  -2.30705470   2.17976814  -1.86707019
 C   0.52626205   0.73291123  -3.00989330
 H   1.17377779  -0.11336286  -2.81597189
 C  -1.05792449   2.98169033  -3.42067333
 H  -1.66383188   3.86237756  -3.58627678
 C   0.87906088   1.66457628  -3.98038026
 H   1.79111184   1.52588801  -4.55653468
 O   0.44521673   3.77246776  -5.07763514
 H   1.17547299   3.43073632  -5.60141018
 C   0.09419164   2.79556397  -4.17433092
 N   1.53875153   1.76669018   0.71901333
 H   1.00546372   2.29282883   1.40445053
 C   2.93849883   1.99427749   0.92419218
 H   3.48437077   1.04214476   0.92460209
 C   3.05645686   2.69868724   2.31271877
 C   3.56078009   2.94229209  -0.10145067
 H   2.95690200   3.85440076  -0.14315660
 H   4.54805684   3.22788924   0.27297759
 O   4.18951432   2.82319617   2.78036570
 C   3.68915617   2.33051656  -1.48772031
 H   2.72571692   1.94678471  -1.82686421
 H   4.35454656   1.46144109  -1.42460819
 C   4.23585079   3.31122420  -2.51578324
 H   5.17004146   3.74468397  -2.14263343
 H   4.47730704   2.77468911  -3.43840848
 C   3.28182977   4.44021947  -2.85312665
 H   2.36411241   4.03129789  -3.28671547
 H   2.99789928   4.96940978  -1.94127337
 N   3.88511947   5.41365701  -3.79689010
 H   3.24114738   6.16959485  -4.03141519
 H   4.16058573   4.95770167  -4.66595135
 H   4.72062749   5.83498093  -3.39279919
 O   1.96294012   3.07083694   2.79860762
 H  -6.07973815  -3.70721493   1.21910798
