21
conf-448
 N   0.30481052  -1.15263915   3.47453841
 H   0.85855628  -0.25725855   3.36133883
 H   0.09489655  -1.32031690   4.45925897
 H   0.86825492  -1.92815370   3.11523046
 C  -0.93206213  -1.05519482   2.67102798
 H  -1.50148931  -0.18193816   3.01006466
 C  -0.53461823  -0.86279293   1.21430361
 C  -1.78391195  -2.31332768   2.82521856
 H  -1.90056826  -2.49666984   3.89688066
 H  -1.22656064  -3.15589352   2.41539576
 O   0.30769839  -1.57866888   0.69080242
 C  -3.15350131  -2.22150997   2.16126277
 H  -3.03901260  -2.08283877   1.08042145
 H  -3.73041090  -1.37832271   2.54306465
 C  -3.98272741  -3.45852780   2.36220067
 O  -5.12723604  -3.48254944   2.73561952
 O  -3.29892712  -4.58131213   2.04164147
 N  -1.16792731   0.12885434   0.54217808
 H  -1.87851667   0.66860144   1.00527508
 C  -0.74780645   0.53135984  -0.79817237
 H  -1.18608275   1.51982256  -0.95771523
 C   0.78552797   0.66222055  -0.85784130
 C  -1.26592461  -0.42863155  -1.87879582
 H  -0.70739740  -1.35886400  -1.81492843
 H  -2.30835304  -0.65457884  -1.64413054
 O   1.47002660   0.11548971  -1.70639336
 C  -1.17107988   0.16561173  -3.25755872
 C  -1.97102063   1.25328057  -3.60979943
 H  -2.65857759   1.65921426  -2.87529880
 C  -0.28932261  -0.33881317  -4.21358208
 H   0.36519329  -1.16301807  -3.94797028
 C  -1.91363511   1.81083211  -4.88183436
 H  -2.53976559   2.65092257  -5.15611030
 C  -0.21219117   0.21457724  -5.48951281
 H   0.48280456  -0.19373739  -6.21581592
 O  -1.00743384   1.88195168  -7.05506328
 H  -0.35960257   1.43681520  -7.60691032
 C  -1.02801537   1.29185267  -5.82300937
 N   1.32102462   1.46077138   0.12503804
 H   0.74930899   1.65876067   0.93115483
 C   2.65985291   1.18173655   0.57289459
 H   3.05583390   0.30438231   0.04315576
 C   2.56343918   0.81605077   2.08570134
 C   3.63183248   2.34211988   0.40637970
 H   3.23691263   3.23060916   0.90216022
 H   4.55407793   2.06820121   0.92375817
 O   3.55307439   0.30561708   2.59312488
 C   3.91958908   2.63939677  -1.05971827
 H   2.99486397   2.91515624  -1.57174767
 H   4.26793396   1.71837524  -1.54233724
 C   4.95763886   3.73457271  -1.27188325
 H   5.92686485   3.40408322  -0.88354652
 H   5.09302515   3.89729765  -2.34497805
 C   4.60679846   5.06002221  -0.61203763
 H   4.66948376   4.95736268   0.47571234
 H   5.33532744   5.82005034  -0.89836533
 N   3.24265289   5.51729500  -0.97704076
 H   3.07848330   6.49047880  -0.71847175
 H   2.54210212   4.94973019  -0.49716487
 H   3.08116068   5.41209053  -1.97792465
 O   1.47373948   1.09307535   2.63674569
 H  -3.90818292  -5.31725500   2.17763465
