21
conf-669
 N  -5.10819854  -2.91039598   0.40147741
 H  -5.39008536  -2.64389572  -0.53707213
 H  -5.75526737  -2.43484359   1.01855403
 C  -3.74697485  -2.43627589   0.62959612
 H  -3.55598166  -2.43984819   1.71075248
 C  -3.53570383  -1.01490476   0.10900290
 C  -2.74781893  -3.40261696  -0.02954185
 H  -3.08336137  -3.56219566  -1.05594556
 H  -1.75795132  -2.93371659  -0.08687638
 O  -4.24320877  -0.47530282  -0.70908487
 C  -2.61689749  -4.71492655   0.70319380
 C  -1.56686254  -4.92174193   1.59614003
 H  -0.82950923  -4.14104530   1.74588113
 C  -3.55012196  -5.73648822   0.52543032
 H  -4.38249269  -5.57429332  -0.15045719
 C  -1.44914404  -6.11939524   2.29615264
 H  -0.62307133  -6.25700671   2.98574668
 C  -3.43610937  -6.93862643   1.22004266
 H  -4.17434879  -7.71767965   1.06435123
 C  -2.38384969  -7.13254033   2.10914385
 H  -2.29342235  -8.06696688   2.65208126
 N  -2.42079874  -0.33935951   0.72269818
 C  -2.03367351   0.94815624   0.02912426
 H  -2.21036998   0.82210539  -1.04012421
 C  -0.54972300   1.18276333   0.28617637
 C  -2.92469707   2.02691752   0.65499766
 H  -2.38097115   2.96436840   0.75423392
 H  -3.78343545   2.19265106   0.00797913
 O  -0.09706079   2.22018894   0.74593674
 C  -3.37725556   1.46090182   2.02566108
 H  -3.12785344   2.12293987   2.85500498
 H  -4.45575993   1.30837703   2.03151437
 C  -2.65304793   0.11948331   2.15604111
 H  -3.21586442  -0.62550913   2.72025280
 H  -1.67932819   0.25682947   2.63746636
 N   0.24351758   0.10157759   0.00483375
 H  -0.12398273  -0.58870787  -0.62460693
 C   1.68045431   0.26925896  -0.00036373
 H   1.88241386   1.15095209   0.61669992
 C   2.23834130   0.62248106  -1.36880583
 C   2.41915799  -0.92818027   0.59276277
 H   3.48846371  -0.70199705   0.55835754
 H   2.26828152  -1.80776523  -0.03882882
 O   3.41459375   0.63924822  -1.62270649
 C   2.00600562  -1.23653796   2.02796066
 H   0.94993238  -1.53486550   2.05801614
 H   2.57740068  -2.10328690   2.37495205
 C   2.21027320  -0.08098408   2.99170034
 H   1.57390311   0.76630505   2.72197897
 H   3.24240573   0.27511556   2.93686258
 C   1.90419351  -0.47464194   4.42079419
 H   0.87447518  -0.86372206   4.46735627
 H   2.57252226  -1.28805276   4.71956928
 N   2.13672000   0.66005379   5.31300210
 H   1.98094044   0.39002598   6.27600051
 H   1.46838641   1.39523381   5.11534417
 O   1.28909214   0.95854337  -2.26647709
 H   1.75971738   1.19785095  -3.07570544
 H  -1.60971619  -0.96488161   0.77646072
