21
conf-591
 N  -4.66642478  -2.22671440   3.14055811
 H  -5.58727111  -2.04611074   2.75596467
 H  -4.63352013  -1.71167761   4.01260790
 C  -3.65046128  -1.73022758   2.21887022
 H  -2.67619961  -1.80374372   2.72480647
 C  -3.84320241  -0.25497191   1.86483424
 C  -3.57779477  -2.63202904   0.97417033
 H  -2.74307707  -2.30883463   0.34625391
 H  -3.33544247  -3.63656469   1.33434270
 O  -4.90295884   0.32236354   1.90969931
 C  -4.83845429  -2.69360631   0.14928442
 C  -5.88502419  -3.52682900   0.53740764
 H  -5.77393480  -4.11577978   1.44153156
 C  -4.99266204  -1.93492274  -1.01346013
 H  -4.19789347  -1.26713910  -1.32148557
 C  -7.06365491  -3.59575537  -0.20009791
 H  -7.86525084  -4.24655753   0.12949492
 C  -6.16800828  -1.99681557  -1.75863134
 H  -6.26659274  -1.39768304  -2.65596038
 C  -7.20744451  -2.82855612  -1.35302421
 H  -8.12304556  -2.87909639  -1.93163949
 N  -2.64904417   0.42159341   1.43212442
 C  -2.29620994   0.43355232  -0.05743045
 H  -2.48092989  -0.55506834  -0.48817224
 C  -0.81779682   0.78082348  -0.19171801
 C  -3.20380619   1.51216133  -0.63507470
 H  -2.79187881   1.93857913  -1.54585897
 H  -4.17064599   1.06734481  -0.87106526
 O  -0.40248510   1.70896814  -0.86943026
 C  -3.36572251   2.54940983   0.49948954
 H  -2.85086492   3.48118377   0.26226913
 H  -4.41616015   2.77240186   0.66819070
 C  -2.73836935   1.90016852   1.74064997
 H  -3.32413393   2.04485056   2.64571371
 H  -1.73097458   2.28616781   1.90680429
 N   0.02069972   0.00577432   0.56554203
 H  -0.28850076  -0.92246699   0.80034558
 C   1.45796137   0.12022362   0.36185159
 H   1.70132711   1.18308988   0.32464694
 C   1.89727074  -0.47793266  -0.95968464
 C   2.20226977  -0.54047579   1.52558232
 H   1.87521881  -1.58084896   1.60892810
 H   1.88227508  -0.03299309   2.43964530
 O   2.81545510  -0.07206164  -1.62687006
 C   3.72422187  -0.48586009   1.42313968
 H   4.13843392  -1.00406275   2.29353902
 H   4.06496436  -1.04155349   0.54265269
 C   4.26442755   0.93467845   1.37488029
 H   3.90952902   1.48908733   2.25170622
 H   3.86764581   1.45363069   0.49527008
 C   5.78798545   1.00218068   1.31521837
 H   6.13674932   0.48320368   0.41785169
 H   6.09441979   2.04553648   1.20890130
 N   6.51709283   0.43947819   2.44950768
 H   6.36095291  -0.55927037   2.51054796
 H   6.18409414   0.83774664   3.32156019
 O   1.17322136  -1.56542687  -1.30006851
 H   1.53896807  -1.87995444  -2.13506156
 H  -1.84208144  -0.02356286   1.88252168
