21
conf-418
 N  -5.41906331   3.68393662  -1.47583683
 H  -5.91370825   3.01040670  -2.05272647
 H  -4.57847721   3.95059688  -1.97016903
 C  -5.11362071   3.10794343  -0.16940729
 H  -4.37900805   3.76824209   0.30619318
 C  -4.48851252   1.71829063  -0.27851504
 C  -6.38689658   3.04956962   0.68125058
 H  -7.14981405   2.54891259   0.08294639
 H  -6.21352610   2.42513562   1.55879610
 O  -5.07993452   0.68027366  -0.07866261
 C  -6.84885856   4.41506278   1.12152153
 C  -6.50958433   4.90204528   2.38373310
 H  -5.92815236   4.28299739   3.05784459
 C  -7.60915548   5.22581391   0.27663726
 H  -7.86553033   4.86211124  -0.71224876
 C  -6.91406664   6.16996253   2.79167114
 H  -6.63784043   6.52871329   3.77747851
 C  -8.01968664   6.49398151   0.68180649
 H  -8.60844383   7.10582159   0.00699225
 C  -7.67076814   6.97054275   1.94106275
 H  -7.98733875   7.95808836   2.25813519
 N  -3.13732127   1.70010038  -0.77824673
 C  -2.37005593   0.51419561  -0.23598360
 H  -2.76974115   0.24243334   0.74063886
 C  -0.92202431   0.94815443  -0.05240776
 C  -2.55988612  -0.61608479  -1.26063692
 H  -1.61478002  -1.12318255  -1.46143123
 H  -3.25596176  -1.35339857  -0.86134755
 O  -0.55279975   2.09006174  -0.25978798
 C  -3.12156253   0.04422058  -2.53742099
 H  -2.57935119  -0.25539368  -3.43285183
 H  -4.16609150  -0.22784434  -2.67798993
 C  -2.99289959   1.54187737  -2.28845863
 H  -3.74610550   2.12906980  -2.81179114
 H  -2.00417561   1.90643257  -2.57752021
 N  -0.07663770  -0.01445804   0.40794783
 H  -0.38670424  -0.96946293   0.39705407
 C   1.35696887   0.22685333   0.42024930
 H   1.52290235   1.24099733   0.78867972
 C   1.95293464   0.16506591  -0.97153932
 C   2.04620841  -0.77932882   1.34884500
 H   1.91092256  -1.78880375   0.95609053
 H   1.51704458  -0.73300771   2.30323737
 O   2.87681306   0.83642702  -1.35845490
 C   3.52287799  -0.48658585   1.56527615
 H   4.05437941  -0.52057689   0.60930058
 H   3.63177791   0.53961546   1.93693605
 C   4.18805863  -1.44785553   2.54169313
 H   5.26788111  -1.26419450   2.54673137
 H   4.05141604  -2.47964785   2.19338776
 C   3.67541223  -1.33829507   3.97136223
 H   3.77134761  -0.30514325   4.31488520
 H   2.61243326  -1.58470366   4.00677868
 N   4.35406747  -2.19888251   4.93479263
 H   5.34653720  -1.99243584   4.93909586
 H   4.27262515  -3.16704888   4.64519374
 O   1.36548223  -0.77584774  -1.74210288
 H   1.83046861  -0.76365478  -2.58632523
 H  -2.65805142   2.56652491  -0.51030122
