21
conf-607
 N  -1.17810893  -1.33321245  -3.89655981
 H  -1.95855386  -1.86531937  -3.54111373
 H  -0.35776456  -1.48302322  -3.33416809
 C  -1.48146373   0.07083608  -4.05213922
 H  -0.54732663   0.57061185  -4.35404309
 C  -1.95469639   0.82023574  -2.79553171
 C  -2.48382512   0.29433680  -5.20969821
 H  -2.53752507   1.36636238  -5.41480385
 H  -2.05549187  -0.18828869  -6.09174590
 O  -2.10893608   2.01782883  -2.81105424
 C  -3.85192391  -0.26182212  -4.92728277
 C  -4.13502566  -1.60351663  -5.15491228
 H  -3.36988284  -2.23769700  -5.59508043
 C  -4.83369013   0.55020374  -4.36958335
 H  -4.60503084   1.59756452  -4.18108177
 C  -5.36170770  -2.14090942  -4.78419183
 H  -5.55042534  -3.19705421  -4.93875340
 C  -6.06533835   0.01900825  -4.00386319
 H  -6.80920879   0.66079788  -3.54400395
 C  -6.33053176  -1.33250742  -4.20252944
 H  -7.28364797  -1.75255912  -3.90349916
 N  -2.28394882   0.00997213  -1.65835325
 C  -2.16089800   0.73067974  -0.33402712
 H  -2.65427362   1.69243399  -0.44719660
 C  -0.70885678   0.98750238   0.04450406
 C  -2.92521502  -0.15225141   0.67973638
 H  -2.26818768  -0.60434066   1.42952202
 H  -3.64421112   0.46718495   1.22167571
 O  -0.33097672   2.04503785   0.52275845
 C  -3.63022111  -1.23225580  -0.16845850
 H  -3.05831155  -2.16290080  -0.17757828
 H  -4.63044733  -1.46411942   0.19632608
 C  -3.65353384  -0.62582410  -1.55684653
 H  -4.39953069   0.17384378  -1.60115049
 H  -3.84256814  -1.31286692  -2.38449745
 N   0.12598202  -0.06672060  -0.17093049
 H  -0.25089756  -0.95201414  -0.44872417
 C   1.53718302   0.04135514   0.07813524
 H   1.73689455   1.11021007   0.21563319
 C   2.36774105  -0.38283697  -1.11379897
 C   1.99278430  -0.69351720   1.33918567
 H   3.07774404  -0.60122842   1.39922936
 H   1.76742366  -1.75863738   1.25532539
 O   3.56149480  -0.53008404  -1.08669082
 C   1.35945389  -0.11773250   2.59583773
 H   1.55354258   0.95840301   2.61869297
 H   0.27457547  -0.23773917   2.55221721
 C   1.88762342  -0.76903844   3.86242017
 H   2.97484605  -0.63644876   3.91290603
 H   1.70563427  -1.84894971   3.81185462
 C   1.25101479  -0.23157107   5.14036002
 H   0.17246791  -0.40854112   5.11412511
 H   1.63575880  -0.78568911   5.99989090
 N   1.44481579   1.19185561   5.40918472
 H   1.01527194   1.74749750   4.67858856
 H   2.43324729   1.42314578   5.40240858
 O   1.64299779  -0.54459699  -2.24225570
 H   2.28310318  -0.75562752  -2.93572775
 H  -1.65439518  -0.79111221  -1.67500300
