21
conf-34
 N  -4.36035822   4.39381252   1.12056786
 H  -4.22258022   5.37618824   1.31617484
 H  -5.30495167   4.16211149   1.41775009
 C  -3.39127078   3.60123482   1.87185881
 H  -2.39684460   3.96693043   1.58617824
 C  -3.49947233   2.16604370   1.38463464
 C  -3.54651986   3.68085308   3.39764203
 H  -4.57446799   3.41068777   3.64601915
 H  -2.90175594   2.93228004   3.86027283
 O  -4.05954431   1.27069241   1.97571745
 C  -3.20801588   5.04631705   3.91681414
 C  -1.90519485   5.35902563   4.30834532
 H  -1.13909819   4.59702618   4.27205748
 C  -4.17704117   6.04536055   3.98258246
 H  -5.19506028   5.81811762   3.68036828
 C  -1.57586043   6.63934483   4.74533725
 H  -0.55506934   6.85443355   5.04285386
 C  -3.85428638   7.33077471   4.41371451
 H  -4.62358131   8.09300154   4.45038556
 C  -2.55032745   7.63083756   4.79617484
 H  -2.29750847   8.62994999   5.13337881
 N  -2.99870227   1.99889888   0.04072415
 C  -2.32836132   0.65489612  -0.16376812
 H  -2.65813339   0.00151046   0.64188552
 C  -0.82278081   0.89458730  -0.09704046
 C  -2.84177294   0.12669967  -1.50246324
 H  -2.24106487   0.51592885  -2.32651803
 H  -2.81585498  -0.96292812  -1.53679456
 O  -0.35730230   2.02476572  -0.15352477
 C  -4.25581011   0.70590300  -1.55201350
 H  -4.71183783   0.67076592  -2.53972360
 H  -4.90481148   0.19046122  -0.84283158
 C  -4.02012570   2.13322941  -1.08064735
 H  -4.90751497   2.64651934  -0.71590306
 H  -3.58736737   2.73678600  -1.88527042
 N  -0.05896352  -0.21274065   0.02440287
 H  -0.46020655  -1.13328635  -0.06155444
 C   1.38649624  -0.13129963   0.02874864
 H   1.67972720   0.77967135  -0.50189186
 C   1.92419428  -1.33721885  -0.70856559
 C   1.98555509  -0.07660890   1.44357812
 H   3.06893846  -0.01593579   1.33749479
 H   1.76461645  -1.00490303   1.97503271
 O   1.28899612  -2.32321436  -0.98457182
 C   1.47238362   1.11780299   2.23280069
 H   1.59709495   2.01186752   1.61831658
 H   0.40409190   1.00707304   2.41097390
 C   2.17253542   1.30597561   3.57068327
 H   3.22404153   1.56818702   3.40786193
 H   2.16527285   0.35653429   4.11897276
 C   1.49695595   2.36116651   4.44249163
 H   0.47251590   2.03971903   4.65657638
 H   2.00404026   2.43705022   5.40638801
 N   1.41070648   3.71293649   3.87488439
 H   1.10345177   3.65206606   2.91010705
 H   2.33307301   4.13472825   3.84738616
 O   3.23045799  -1.19395397  -1.00449566
 H   3.49304883  -2.00823927  -1.45232513
 H  -2.25856821   2.69746406  -0.10900697
