21
conf-966
 N  -4.56373599   3.03176696  -2.03548843
 H  -4.21893443   3.19161084  -2.97884262
 H  -3.85357190   3.39387287  -1.40818275
 C  -4.73377368   1.58959987  -1.83542666
 H  -4.89536595   1.40299685  -0.77455808
 C  -3.50964110   0.80766388  -2.29365324
 C  -5.96913603   1.13090278  -2.63214690
 H  -5.86108242   1.53975276  -3.63823388
 H  -5.97536023   0.04129898  -2.73238392
 O  -3.03240578   0.94843525  -3.39698115
 C  -7.25976732   1.57138549  -1.99301819
 C  -7.78676341   2.84110441  -2.23549590
 H  -7.25077214   3.51456598  -2.89552000
 C  -7.94364603   0.72359758  -1.11874571
 H  -7.55140684  -0.26917096  -0.91687889
 C  -8.96921183   3.25358053  -1.62535598
 H  -9.35846042   4.24497452  -1.82992804
 C  -9.12438963   1.13239747  -0.50444837
 H  -9.63827518   0.45602896   0.16980053
 C  -9.64117632   2.39888909  -0.75685068
 H  -10.56134503   2.71809958  -0.28008109
 N  -2.95851515  -0.15227247  -1.35271617
 C  -2.36084686   0.48101058  -0.07891176
 H  -2.80200295   1.47601089   0.02786804
 C  -0.85854706   0.67556665  -0.22803587
 C  -2.79583728  -0.42073192   1.06849784
 H  -2.10434065  -1.25595301   1.17606326
 H  -2.81571130   0.12228937   2.01389177
 O  -0.34273204   1.78019399  -0.21522059
 C  -4.15958110  -0.92182382   0.61488998
 H  -4.49602257  -1.81285540   1.14359180
 H  -4.91947932  -0.14793145   0.74548370
 C  -3.94554903  -1.19934769  -0.86434416
 H  -4.86303497  -1.16288122  -1.45243860
 H  -3.51093152  -2.19291590  -1.01548533
 N  -0.13519774  -0.47913605  -0.36836510
 H  -0.65060686  -1.31428835  -0.57814557
 C   1.22644892  -0.39870807  -0.85077890
 H   1.52825436   0.63468516  -0.66799368
 C   1.32553635  -0.59609961  -2.35139907
 C   2.17797698  -1.33346638  -0.10636685
 H   2.15897699  -1.05332502   0.95049388
 H   3.18820865  -1.13232920  -0.47304269
 O   2.33052957  -0.92189469  -2.92900998
 C   1.86765760  -2.81215594  -0.25850287
 H   0.86234569  -3.02543743   0.11074277
 H   1.87997500  -3.08417606  -1.31852885
 C   2.86576335  -3.66727203   0.50383036
 H   2.85571898  -3.38300786   1.56113587
 H   3.87645793  -3.46527746   0.13384621
 C   2.58551286  -5.15885685   0.39109274
 H   1.57718275  -5.36576088   0.75822363
 H   2.60446537  -5.45236339  -0.66133397
 N   3.51001340  -6.02487013   1.11184820
 H   3.51043632  -5.78774829   2.09752962
 H   4.45700096  -5.86878456   0.78536166
 O   0.16814323  -0.33481523  -2.98884607
 H   0.33683436  -0.44701336  -3.93335235
 H  -2.20174275  -0.58764931  -1.89966228
