21
conf-961
 N  -2.82640104   2.08726507   3.66062584
 H  -2.37895467   2.19026494   4.55672748
 H  -3.47812041   2.85447868   3.56029621
 C  -3.51995872   0.80827710   3.57586219
 H  -2.94296453   0.07218042   4.15187245
 C  -3.53041221   0.29911980   2.13940582
 C  -4.95477403   0.79931917   4.15877395
 H  -5.30912403  -0.23529848   4.14996167
 H  -4.88442192   1.10831739   5.20667805
 O  -4.01164167  -0.77149228   1.85544197
 C  -5.92559261   1.68620228   3.42555445
 C  -6.11297105   3.01311386   3.80242954
 H  -5.56674163   3.40773234   4.65214080
 C  -6.65909562   1.18696761   2.34759160
 H  -6.51881216   0.15208014   2.04693557
 C  -6.98855046   3.83947509   3.10268732
 H  -7.11062522   4.87110077   3.40880200
 C  -7.53759149   2.00861022   1.64567364
 H  -8.08280795   1.60585730   0.80010954
 C  -7.70023544   3.33931898   2.01759727
 H  -8.38106969   3.97932693   1.46940353
 N  -2.97718994   1.20839328   1.18469566
 C  -2.35604385   0.52404773  -0.00625188
 H  -2.69775233  -0.50648532  -0.01697003
 C  -0.84063522   0.56919844   0.16490267
 C  -2.85125420   1.29612023  -1.23712927
 H  -2.13679489   1.29571171  -2.06182932
 H  -3.77191318   0.82231637  -1.58770695
 O  -0.30048776   1.26633023   1.01012088
 C  -3.16589748   2.68545990  -0.68577899
 H  -2.25245729   3.25876153  -0.51198585
 H  -3.81684624   3.26381254  -1.34068594
 C  -3.84236811   2.33146020   0.62421212
 H  -4.84700793   1.94562975   0.43280012
 H  -3.91224866   3.14446734   1.34453032
 N  -0.13061286  -0.18160500  -0.70790447
 H  -0.58995538  -0.74689422  -1.40364442
 C   1.31868568  -0.17085692  -0.64583878
 H   1.63346427   0.85488736  -0.42882425
 C   1.91777940  -0.56426645  -1.97517998
 C   1.84086716  -1.07574365   0.47773412
 H   1.51286745  -2.10281542   0.29225012
 H   1.34938874  -0.73994906   1.39386301
 O   2.96981677  -0.16734624  -2.40573256
 C   3.35477068  -1.03695256   0.65745652
 H   3.61508615  -1.69978823   1.48586091
 H   3.86425612  -1.43187794  -0.22611645
 C   3.87148368   0.36376240   0.95865301
 H   3.28086517   0.80211790   1.77302291
 H   3.73609416   1.01058036   0.08486348
 C   5.33788288   0.37393324   1.34654543
 H   5.91430965  -0.11081972   0.55269079
 H   5.69037880   1.41282210   1.40778345
 N   5.55472321  -0.37913268   2.58732139
 H   5.11343905   0.10166510   3.36391859
 H   6.54240535  -0.41399302   2.80588285
 O   1.15147652  -1.46677105  -2.62888979
 H   1.60796877  -1.68011505  -3.45189150
 H  -2.25655339   1.72200528   1.72210212
