21
conf-172
 N  -3.53015343   0.90071890  -4.75431572
 H  -3.03088269   1.03413767  -5.62552483
 H  -3.77979812   1.82493331  -4.40940215
 C  -2.66218712   0.26539173  -3.77624909
 H  -2.77937054  -0.82283273  -3.85538632
 C  -3.12347428   0.68350069  -2.39002610
 C  -1.15178415   0.54745608  -3.96793844
 H  -0.60304742   0.01623200  -3.17757895
 H  -0.85362939   0.09103297  -4.91600354
 O  -3.77294978   1.67341742  -2.16308852
 C  -0.76644256   2.00078907  -3.97604492
 C  -0.44001389   2.64842088  -5.17132668
 H  -0.44214367   2.08459983  -6.09892190
 C  -0.73271018   2.74489543  -2.79875571
 H  -0.95459110   2.26288459  -1.85179654
 C  -0.11091899   4.00319840  -5.19111096
 H   0.13142834   4.48191342  -6.13304923
 C  -0.39983545   4.09654671  -2.80887897
 H  -0.37565788   4.64303403  -1.87201183
 C  -0.09568029   4.73363027  -4.00882711
 H   0.15680054   5.78724387  -4.01705084
 N  -2.70618447  -0.23030430  -1.36261647
 C  -2.80994554   0.30403237   0.05896816
 H  -3.57119886   1.07397257   0.06844699
 C  -1.49264368   0.96191182   0.43577047
 C  -3.19605408  -0.90075302   0.94024266
 H  -2.60712325  -0.95256346   1.85875363
 H  -4.24182537  -0.79519523   1.23723525
 O  -1.41633349   2.11659112   0.82308796
 C  -3.02136391  -2.13403841   0.04689087
 H  -1.99693021  -2.51188645   0.08152587
 H  -3.67758407  -2.95512763   0.33549777
 C  -3.34921695  -1.60574418  -1.33672549
 H  -4.43478228  -1.50482484  -1.45530473
 H  -2.96820484  -2.22965197  -2.14845379
 N  -0.38478836   0.17868905   0.22881770
 H  -0.50726998  -0.82154274   0.24760265
 C   0.94047342   0.68056430   0.59719533
 H   1.61563327  -0.17979140   0.53409901
 C   0.96228807   1.13584928   2.04712097
 C   1.42880816   1.75055698  -0.37929988
 H   0.84592796   2.65999656  -0.24330697
 H   1.21215027   1.38492410  -1.38802760
 O   1.41822905   2.17506775   2.45810340
 C   2.91417508   2.05244927  -0.29015976
 H   3.17389205   2.42606702   0.70142526
 H   3.47522897   1.12314869  -0.43273910
 C   3.33055578   3.05945140  -1.35041949
 H   2.78198622   3.99493644  -1.19270200
 H   3.04374481   2.68898574  -2.34139135
 C   4.82360105   3.35553292  -1.34698907
 H   5.11870094   3.72235078  -0.36090214
 H   5.37634760   2.42817349  -1.51718837
 N   5.26998063   4.32799933  -2.33666748
 H   4.78749400   5.20891378  -2.19917060
 H   5.02136023   4.01411761  -3.26800673
 O   0.41223452   0.20723382   2.85514031
 H   0.47882493   0.55737554   3.75194416
 H  -1.71234474  -0.44239468  -1.51895890
