21
conf-669
 N  -4.37421723  -1.98741612   6.07242669
 H  -5.23976960  -1.45999911   6.10164613
 H  -3.77947754  -1.58372015   6.78704715
 C  -3.77074725  -1.81100729   4.75879733
 H  -2.77812325  -2.26454553   4.77300362
 C  -3.62731769  -0.33559270   4.35370056
 C  -4.60320992  -2.54187238   3.69543698
 H  -5.52034666  -1.99372277   3.47865514
 H  -4.00088340  -2.62432183   2.78796959
 O  -4.46626351   0.50555936   4.66170547
 C  -5.02384862  -3.91304972   4.15347648
 N  -3.91645680  -4.69946986   4.63222561
 H  -3.10260613  -4.54583275   4.02842523
 H  -4.20768394  -5.67806256   4.70696909
 O  -6.15675206  -4.30238217   4.26086931
 N  -2.53048386  -0.05052507   3.60624776
 H  -1.96841567  -0.80172104   3.23649321
 C  -2.36450061   1.22467313   2.93477292
 H  -3.29053294   1.78797481   3.03230072
 C  -2.08814179   0.88767928   1.47679065
 C  -1.20303901   2.05271728   3.52553431
 H  -0.31718590   1.40838702   3.46448806
 O  -1.36682320  -0.06087815   1.18160749
 C  -1.42492861   2.36801789   5.01241764
 H  -0.50125021   2.81491587   5.39336789
 H  -1.55622129   1.43327015   5.56515594
 C  -0.92350967   3.33157433   2.73537343
 H  -1.83403540   3.92638495   2.61057500
 H  -0.19278626   3.94717393   3.26755242
 H  -0.51397512   3.11914880   1.74978453
 C  -2.59212889   3.30428696   5.30024997
 H  -2.68905860   3.47457559   6.37409301
 H  -2.44750561   4.27609126   4.82263103
 H  -3.53630693   2.88504416   4.94338800
 N  -2.66383414   1.67627813   0.54188969
 H  -3.00941152   2.57673244   0.83254817
 C  -2.25325716   1.57560880  -0.85261655
 H  -2.36829559   0.52921397  -1.14445207
 C  -0.77316291   1.96896757  -0.96657634
 C  -3.10261731   2.49816179  -1.70477101
 H  -2.81606726   2.41995508  -2.75600519
 H  -4.15834565   2.24372030  -1.60537290
 H  -2.94776757   3.52993568  -1.38694861
 O  -0.38046550   3.07861231  -0.54970743
 N   0.03751140   1.03508161  -1.51487920
 H  -0.33964756   0.20160646  -1.93881345
 C   1.47340983   1.15425517  -1.55274430
 H   1.72248742   2.21497723  -1.62385591
 C   1.92092366   0.39489728  -2.79538801
 C   2.14801439   0.56602647  -0.28819305
 H   3.19807289   0.34614581  -0.52361206
 O   1.21281801  -0.45692063  -3.31970154
 C   2.08055910   1.52401096   0.88984000
 H   2.67046399   2.42115863   0.68791371
 H   2.46702014   1.04164846   1.78648552
 H   1.04862971   1.83447880   1.07901932
 O   1.57339073  -0.68164393   0.04566363
 H   0.63130097  -0.52382558   0.19048764
 N   3.14611093   0.70488831  -3.26626489
 H   3.75496365   1.28514737  -2.71522614
 C   3.67465309   0.05567320  -4.46002548
 H   2.81292550  -0.17167853  -5.09036178
 C   4.37057723  -1.25437448  -4.06125757
 C   4.60806047   0.97845907  -5.20588406
 H   5.55503289   1.07577129  -4.66335891
 H   4.13455321   1.96228981  -5.27995507
 O   5.59365390  -1.37372266  -4.02691230
 O   4.79578215   0.41151088  -6.49857459
 H   5.52169201   0.86961292  -6.92677653
 N   3.54850764  -2.24992787  -3.68126881
 H   2.55321565  -2.07368502  -3.59673399
 C   4.09022844  -3.51227247  -3.23351089
 H   3.35641831  -4.30362923  -3.37620630
 H   4.96959181  -3.71435088  -3.84971148
 C   4.47089488  -3.51644371  -1.75475607
 O   3.93404112  -4.25952547  -0.94693332
 N   5.43470790  -2.63484724  -1.39895072
 H   5.92943947  -2.10213640  -2.10611105
 C   5.95590012  -2.65464280  -0.04850387
 H   5.12596051  -2.86652756   0.63157472
 C   6.54698586  -1.30270798   0.26809321
 C   7.01783625  -3.75456004   0.12196277
 H   6.56183152  -4.67942271  -0.23342772
 H   7.86247986  -3.53426146  -0.53462035
 O   7.07214035  -0.56749025  -0.52883035
 C   7.49237471  -3.94125739   1.55383157
 H   7.99535876  -3.04124056   1.91079167
 H   6.61828584  -4.09010484   2.19752133
 C   8.42540143  -5.13456648   1.67574955
 H   9.29433442  -4.97894113   1.02505033
 H   7.91256929  -6.02923015   1.30300335
 C   8.90206377  -5.41146941   3.09810441
 H   8.04045418  -5.58864245   3.74708644
 H   9.49205009  -6.33117205   3.10954606
 N   9.70538091  -4.36524312   3.72661472
 H   9.16294037  -3.51525548   3.82303006
 H   10.50265908  -4.13151955   3.14338704
 O   6.46601623  -1.01254693   1.58269289
 H   6.91898102  -0.16643696   1.69167219
 H  -3.64640948  -4.35860527   5.57050237
