21
conf-962
 N  -7.59296375  -0.75128094   2.80641503
 H  -8.55512708  -0.73636107   2.48672265
 H  -7.60174729  -1.16124964   3.73515305
 C  -7.14171633   0.63396335   2.89394073
 H  -7.44438637   1.13758523   1.97131208
 C  -5.61861823   0.72496342   2.93599059
 C  -7.73316211   1.43519094   4.06041139
 H  -7.52111020   0.95677774   5.02274748
 H  -7.27482689   2.42610498   4.10609586
 O  -5.04497735   1.78883230   3.15748279
 C  -9.22099916   1.58640161   3.92740172
 N  -9.80501055   2.25315208   5.07559654
 H  -9.38942905   1.87933209   5.93766742
 H  -10.82141239   2.14106853   5.04399053
 O  -9.88910679   1.27574460   2.97390813
 N  -4.96776050  -0.42284379   2.68769800
 H  -5.52129730  -1.20792290   2.38785530
 C  -3.52003970  -0.44008987   2.60588606
 H  -3.18042118   0.30464064   3.33247465
 C  -3.11821458   0.01128168   1.20152461
 C  -2.89916303  -1.79279259   2.97066002
 H  -3.22734739  -2.51147104   2.21412648
 O  -2.84645720  -0.78355058   0.29742970
 C  -3.38755100  -2.26353504   4.33972217
 H  -4.46961639  -2.13960597   4.40014658
 H  -2.95909333  -1.59987539   5.09828400
 C  -1.36935268  -1.67725979   2.95349824
 H  -1.05798424  -0.89528473   3.65075740
 H  -0.89912616  -2.61346617   3.25745175
 H  -0.99300803  -1.41138667   1.96294773
 C  -3.04179753  -3.71266815   4.65281081
 H  -3.43187694  -3.99954244   5.63117960
 H  -3.47623846  -4.38714977   3.90924034
 H  -1.96436810  -3.88412143   4.66268448
 N  -3.10071019   1.34565950   1.01071763
 H  -3.44800349   1.95487130   1.74218847
 C  -2.52428512   1.92411290  -0.19141382
 H  -2.80734737   1.26488316  -1.01750125
 C  -1.00028239   1.89830128  -0.03747436
 C  -3.05724681   3.32790892  -0.39700620
 H  -2.64258535   3.76616940  -1.30666323
 H  -4.14484801   3.29218219  -0.48485988
 H  -2.78384437   3.96421308   0.44608135
 O  -0.34631244   2.87438482   0.33519545
 N  -0.41388887   0.70986718  -0.28563237
 H  -0.96937641  -0.12008579  -0.47622136
 C   1.02261995   0.56230117  -0.20229103
 H   1.46417840   1.53841287  -0.41592814
 C   1.44186152  -0.47203029  -1.24161210
 C   1.46687260   0.16312178   1.22823619
 H   1.13434813  -0.86840887   1.40575723
 O   0.79290403  -1.48640575  -1.42663696
 C   2.96782391   0.28847247   1.42168254
 H   3.52671311  -0.33655021   0.72917043
 H   3.22530203   0.00694252   2.44397384
 H   3.25698540   1.33535131   1.26998944
 O   0.81084437   0.96916598   2.19187115
 H   0.65997201   1.82794939   1.78120269
 N   2.56230290  -0.18314022  -1.95572709
 H   3.22786819   0.46823441  -1.56695834
 C   3.14726820  -1.21087023  -2.79192678
 H   2.32554729  -1.76695445  -3.24126033
 C   4.00819890  -2.16053906  -1.94183971
 C   3.96670056  -0.55854259  -3.88595983
 H   3.30791966   0.07901904  -4.48358681
 H   4.40253167  -1.32480390  -4.53910362
 O   4.36804245  -1.89689631  -0.80578083
 O   4.97505873   0.21481353  -3.23682129
 H   5.63585585   0.46071426  -3.88997119
 N   4.38047975  -3.30304510  -2.55195751
 H   4.03771454  -3.59136745  -3.45348061
 C   5.16852045  -4.27629408  -1.84530646
 H   6.12768172  -3.85224431  -1.54056434
 H   4.67279703  -4.59747329  -0.92466783
 C   5.37172065  -5.46412373  -2.78248016
 O   4.82821292  -5.52638196  -3.87314320
 N   6.18626990  -6.43400930  -2.30769756
 H   6.50169200  -6.41098183  -1.35147166
 C   6.38128839  -7.65015726  -3.07301491
 H   5.41779427  -7.95573546  -3.48922954
 C   6.86954775  -8.78774282  -2.20437320
 C   7.33019649  -7.46239108  -4.26833293
 H   7.32784961  -8.39480523  -4.83801369
 H   6.88556324  -6.69250914  -4.90033966
 O   6.93155171  -9.93061356  -2.57783292
 C   8.75560414  -7.08623873  -3.90416527
 H   8.75889115  -6.19586295  -3.27449234
 H   9.21689392  -7.88581386  -3.31700424
 C   9.59117931  -6.82095673  -5.14458680
 H   9.11949467  -6.02885738  -5.73593783
 H   9.60521484  -7.71743441  -5.77293249
 C   11.02252924  -6.41616880  -4.82597849
 H   11.01395318  -5.52138247  -4.19866087
 H   11.50094616  -7.20637191  -4.24225868
 N   11.86744421  -6.14199334  -5.98168660
 H   11.45965638  -5.40168180  -6.54153418
 H   11.90825846  -6.95768025  -6.58234969
 O   7.25880012  -8.39666473  -0.96996992
 H   7.54702469  -9.19028748  -0.50222386
 H  -9.57812308   3.25758695   5.07494199
