21
conf-234
 N  -3.43811670  -0.80727088   4.30059666
 H  -2.70751172  -1.45196514   4.01771991
 H  -3.43200795  -0.78048779   5.31359663
 C  -3.09848039   0.50405568   3.77394303
 H  -3.97570503   1.15913523   3.84501919
 C  -2.74423145   0.32707161   2.31544839
 C  -1.92534779   1.16255280   4.51472312
 H  -2.14698950   1.12950574   5.58400759
 H  -1.03960158   0.54278557   4.35664600
 O  -1.99546476  -0.57623314   1.95929620
 C  -1.64056575   2.58777322   4.08096294
 H  -2.51509021   3.23081234   4.19634591
 H  -1.36200016   2.60358152   3.02878730
 C  -0.51211131   3.24355561   4.81227259
 O  -0.45952210   4.41130297   5.09585963
 O   0.49764155   2.38424924   5.09601546
 N  -3.26825212   1.20492285   1.43370427
 H  -3.64329406   2.06493883   1.79233404
 C  -2.70347273   1.27954184   0.09102853
 H  -2.81382038   0.30449761  -0.37541978
 C  -1.20766828   1.62176666   0.22187228
 C  -3.40447176   2.36151404  -0.71509910
 H  -2.88333617   2.47524175  -1.67114493
 H  -3.27797921   3.31241608  -0.19687290
 O  -0.84712113   2.63868312   0.85628917
 C  -4.86199348   2.07038418  -0.93698034
 C  -5.54715279   0.89586743  -0.74994282
 H  -5.21126193  -0.06354757  -0.39086703
 C  -5.82864096   3.02958326  -1.41316630
 C  -7.06921489   2.37711129  -1.49249070
 C  -5.73234411   4.38204465  -1.76383652
 H  -4.78553236   4.90943409  -1.70757783
 N  -6.87329489   1.08038263  -1.08382381
 H  -7.58279083   0.37261935  -1.04736662
 C  -8.11185889   4.36303847  -2.26770487
 H  -8.98796354   4.90349260  -2.60510758
 C  -8.22989798   3.02577127  -1.92113598
 H  -9.17820535   2.50283575  -1.97766680
 C  -6.87667527   5.03410777  -2.18956742
 H  -6.82644731   6.08037509  -2.46726176
 N  -0.35849176   0.74344165  -0.38562928
 H  -0.75068588  -0.16685741  -0.58289454
 C   1.05168200   0.74936953  -0.03746195
 H   1.29766121   1.77568313   0.25783340
 C   1.94010669   0.47697192  -1.24983544
 C   1.38739212  -0.20106051   1.13208286
 H   2.44321731  -0.45194109   1.06006014
 O   3.09839725   0.11333599  -1.12727702
 C   1.09253377   0.49263182   2.45596706
 H   1.86069360   1.24393138   2.64861376
 H   1.08703311  -0.22608799   3.27866492
 H   0.13151958   1.00963555   2.42500886
 O   0.68063485  -1.42385848   1.01819278
 H  -0.22431518  -1.24914079   1.30780821
 N   1.38594672   0.76150506  -2.45821843
 H   0.48302099   1.19554441  -2.45293792
 C   2.25549320   1.05806451  -3.57209769
 H   3.19773274   0.53400418  -3.37654651
 C   2.61945370   2.53811020  -3.62967829
 C   1.67612123   0.59758192  -4.90523013
 H   2.32727590   0.96271567  -5.70096714
 H   0.69932092   1.05683225  -5.05695106
 O   3.16817393   3.05752194  -4.56601841
 C   1.56751185  -0.91733853  -4.97976050
 H   2.55985889  -1.35584613  -4.82762207
 H   0.93266116  -1.29502679  -4.17670551
 C   1.02439447  -1.39040769  -6.31246878
 H   1.63374352  -0.97417912  -7.11746296
 H   1.07654075  -2.48306486  -6.38850603
 N  -0.37019520  -0.91953915  -6.47117538
 H  -0.92622742  -0.99236196  -5.63004169
 N  -0.48153561  -1.64301790  -8.69595673
 H  -0.94005699  -1.52818887  -9.58574255
 H   0.52442949  -1.66273571  -8.72030090
 N  -2.40997290  -0.93122167  -7.56402528
 H  -2.75049298  -0.27118216  -6.87809321
 H  -2.88839754  -0.89565420  -8.45107789
 C  -1.07406305  -1.15389494  -7.59101434
 O   2.30050770   3.21081869  -2.50168752
 H   2.61325442   4.11489077  -2.63680460
 H   1.17396269   2.89668151   5.55787197
