21
conf-749
 N  -4.26872001   0.37676025   4.73270396
 H  -4.60268040   0.83469826   5.57400998
 H  -5.08959356   0.12519316   4.19362591
 C  -3.43113462   1.31211442   3.97647821
 H  -3.95322132   2.24799314   3.73435716
 C  -2.97473223   0.65854807   2.67636986
 C  -2.20522604   1.66739265   4.81412208
 H  -2.56767633   2.10199411   5.75008954
 H  -1.68425323   0.73881745   5.05702971
 O  -2.41078560  -0.42895195   2.66549201
 C  -1.25189940   2.65450147   4.13575433
 H  -0.83654209   2.23696615   3.21747327
 H  -0.44092522   2.93263414   4.81445068
 C  -2.07697019   3.84132478   3.73629091
 O  -2.74246724   3.91747348   2.72444776
 O  -2.13000780   4.81276606   4.67843948
 N  -3.22618817   1.34656845   1.53278615
 H  -3.34669476   2.35654335   1.58300766
 C  -2.66086032   0.84176319   0.30340764
 H  -2.87419709  -0.23002251   0.28840162
 C  -1.15791133   1.04514689   0.32159752
 C  -3.32216434   1.49928020  -0.92284502
 H  -4.40486139   1.44259648  -0.78356381
 H  -3.06818469   0.91322461  -1.81124811
 O  -0.64006104   2.03738292   0.80477985
 C  -2.91244927   2.92934906  -1.10789889
 C  -3.60201748   4.02836175  -0.68573619
 H  -4.54863656   4.08385801  -0.16729916
 C  -1.69017795   3.42597090  -1.69861480
 C  -1.69349724   4.82512136  -1.56000260
 C  -0.60515292   2.79809652  -2.32266660
 H  -0.56542467   1.72248099  -2.41083119
 N  -2.86780674   5.16843149  -0.91904355
 H  -3.19147460   6.10085808  -0.75946340
 C   0.42332454   4.98165973  -2.62375136
 H   1.25846064   5.56255281  -2.99346436
 C  -0.64276802   5.62763189  -2.01478931
 H  -0.66498942   6.70415850  -1.89420699
 C   0.43861438   3.58696850  -2.77384428
 H   1.28475067   3.11411987  -3.25981638
 N  -0.42831079   0.06440015  -0.27435522
 H  -0.87005750  -0.81717548  -0.47887174
 C   1.01013182   0.02246181  -0.15508348
 H   1.34135315   1.01694975   0.12479070
 C   1.61258498  -0.36136006  -1.50133264
 C   1.45425140  -0.98843527   0.92209907
 H   2.54874189  -1.07180631   0.86706591
 O   1.20534073  -1.33800220  -2.13562541
 C   1.05032366  -0.56035120   2.31818848
 H   1.38564100   0.45990269   2.52883498
 H   1.48693526  -1.23904172   3.04959768
 H  -0.03290969  -0.60267822   2.42224734
 O   0.84880522  -2.25805422   0.70626269
 H   1.10984475  -2.56866485  -0.16991406
 N   2.61812824   0.43099491  -1.94143637
 H   3.02373237   1.12271131  -1.32890529
 C   3.35333926   0.12608653  -3.15181499
 H   3.20311582  -0.93111123  -3.38694405
 C   4.82277910   0.36971814  -2.89081123
 C   2.89797135   0.96088961  -4.35559574
 H   3.53838343   0.69922216  -5.19842226
 H   3.06223689   2.02232243  -4.15188121
 O   5.27203411   1.00087268  -1.96817636
 C   1.44794176   0.71200744  -4.73305443
 H   1.28620958  -0.36068543  -4.85621475
 H   0.78256534   1.04352943  -3.92458139
 C   1.04837092   1.43900098  -6.00442453
 H   1.18039354   2.51560011  -5.86392040
 H   1.69858178   1.13181772  -6.83190439
 N  -0.36667808   1.15561023  -6.31386588
 H  -0.66101047   0.21819976  -6.08099068
 N  -0.34850417   2.57370793  -8.17759319
 H  -0.89914903   3.13684051  -8.80486253
 H   0.49255469   2.99860751  -7.82644151
 N  -2.18205876   1.17133264  -7.75095936
 H  -2.73669874   0.77096974  -7.00688451
 H  -2.71212500   1.69494562  -8.42996417
 C  -0.96366274   1.65495322  -7.41140089
 O   5.59330653  -0.18690210  -3.84626214
 H   6.50457077   0.03614054  -3.61708886
 H  -2.79195293   5.45607679   4.39187668
