100
102
N         -4.82571       -2.49516        3.58073
H         -5.68953       -2.08765        3.22125
H         -4.81121       -2.30474        4.58158
C         -3.69559       -1.84672        2.92363
H         -2.78238       -2.14400        3.45506
C         -3.82386       -0.31414        2.91789
C         -3.62266       -2.37326        1.46651
H         -3.55554       -3.46381        1.51264
H         -4.55731       -2.10574        0.96367
O         -4.84674        0.23085        2.49055
C         -2.48670       -1.75300        0.67056
N         -1.38151       -2.49747        0.47803
H         -0.59892       -2.08815       -0.02944
H         -1.33205       -3.45970        0.77826
O         -2.57711       -0.58409        0.26194
N         -2.77774        0.39243        3.42335
H         -1.92770       -0.09500        3.67097
C         -2.76612        1.85882        3.45191
H         -3.81214        2.14784        3.58454
C         -2.33467        2.37187        2.05372
C         -1.96784        2.40350        4.65965
H         -2.50193        1.99830        5.53176
O         -1.18661        2.83157        1.86802
C         -2.03767        3.94386        4.75956
H         -1.48448        4.38817        3.92383
H         -1.49515        4.23011        5.66919
C         -0.51066        1.91630        4.74703
H          0.08867        2.28744        3.91298
H         -0.06114        2.27735        5.67795
H         -0.42695        0.82179        4.77162
C         -3.45250        4.53312        4.82448
H         -3.40851        5.60891        5.02278
H         -4.00616        4.40459        3.88673
H         -4.04242        4.07423        5.62732
N         -3.29829        2.23229        1.13238
H         -4.11788        1.71558        1.46691
C         -3.29288        2.44171       -0.33103
H         -3.70615        1.51558       -0.74426
C         -1.87107        2.59460       -0.87919
C         -4.17254        3.63227       -0.71532
H         -4.24449        3.71535       -1.80377
H         -5.18001        3.49400       -0.31185
H         -3.75549        4.56404       -0.32733
O         -1.44369        3.71261       -1.24553
N         -1.11145        1.48746       -0.92008
H         -1.47370        0.59896       -0.53285
C          0.26837        1.55429       -1.39389
H          0.29097        2.18845       -2.28742
C          0.74589        0.12740       -1.72371
C          1.20908        2.16895       -0.32699
H          1.24281        1.51296        0.54595
O          0.56783       -0.78383       -0.91374
C          2.59329        2.52063       -0.82830
H          3.10937        1.61578       -1.16595
H          3.17598        2.97992       -0.02539
H          2.53866        3.22839       -1.66367
O          0.57150        3.42531        0.18349
H         -0.05536        3.79218       -0.55522
N          1.34258       -0.02478       -2.91739
H          1.55987        0.77365       -3.50531
C          2.01680       -1.24615       -3.31424
H          1.42261       -2.09789       -2.96700
C          3.41368       -1.31977       -2.64487
C          2.09560       -1.23929       -4.85261
H          1.08072       -1.40274       -5.25123
H          2.72074       -2.07686       -5.19748
O          3.85590       -0.41719       -1.93426
O          2.61634        0.00876       -5.22640
H          3.04302       -0.04611       -6.13766
N          4.09701       -2.46603       -2.87324
H          3.70868       -3.16269       -3.49342
C          5.36635       -2.77429       -2.21627
H          5.31387       -2.40048       -1.18835
H          5.48958       -3.85745       -2.19791
C          6.61830       -2.19848       -2.90571
O          7.46322       -2.93801       -3.39271
N          6.70345       -0.83552       -2.89802
H          5.98285       -0.32888       -2.39230
C          7.94586       -0.15979       -3.24422
H          8.64480       -0.96770       -3.49621
C          8.56399        0.56776       -2.04728
C          7.85128        0.78765       -4.45580
H          7.18815        1.62865       -4.21154
H          8.84635        1.22011       -4.58934
O          9.41308        1.42429       -2.13837
C          7.37545        0.08970       -5.74944
H          8.00006        0.41914       -6.58928
H          7.52981       -0.99395       -5.66189
C          5.90528        0.37576       -6.08261
H          5.78390        1.45417       -6.26758
H          5.26606        0.13697       -5.22545
C          5.40523       -0.39900       -7.30178
H          6.05807       -0.21058       -8.16742
H          5.44709       -1.47593       -7.10029
N          3.99162       -0.05731       -7.59603
H          3.64334       -0.63664       -8.35975
H          3.94150        0.90451       -7.93479
O          8.08300        0.13597       -0.85612
H          8.57922        0.63130       -0.17630
H         -0.14058        3.19071        0.91888
