100
102
N         -5.43444        0.35352       -0.78355
H         -4.88375        1.19072       -0.97500
H         -6.18533        0.67150       -0.17296
C         -4.60220       -0.59086       -0.05370
H         -5.24897       -1.42088        0.26272
C         -4.01435        0.01549        1.24500
C         -3.55487       -1.19243       -1.00949
H         -3.05888       -2.06479       -0.55944
H         -4.08572       -1.56609       -1.89014
O         -4.44777        1.08243        1.68484
C         -2.45963       -0.21754       -1.43657
N         -1.83454       -0.49462       -2.59054
H         -0.98837        0.02808       -2.79529
H         -1.99235       -1.35270       -3.11496
O         -2.15208        0.75874       -0.72728
N         -3.06606       -0.70275        1.92033
H         -2.60339       -1.46543        1.44443
C         -2.36461       -0.13685        3.08151
H         -3.11639        0.41893        3.65000
C         -1.33384        0.86579        2.50635
C         -1.74503       -1.21609        3.98916
H         -0.97163       -1.73822        3.40639
O         -0.15432        0.49689        2.30953
C         -2.81152       -2.24350        4.42764
H         -3.35952       -2.59753        3.54642
H         -3.55463       -1.73644        5.05936
C         -1.06589       -0.55016        5.19807
H         -1.80187       -0.02215        5.81745
H         -0.57861       -1.29699        5.83054
H         -0.29821        0.16541        4.89067
C         -2.24405       -3.45622        5.17460
H         -3.03882       -4.17705        5.39271
H         -1.48366       -3.97295        4.57534
H         -1.78532       -3.17958        6.12911
N         -1.87327        2.05766        2.20390
H         -2.89255        2.05899        2.30327
C         -1.42565        3.12701        1.28321
H         -2.03457        3.01291        0.38022
C          0.03882        2.95398        0.89380
C         -1.66824        4.49856        1.91560
H         -1.44265        5.29208        1.19653
H         -2.71824        4.59418        2.20875
H         -1.03467        4.63454        2.79430
O          0.94850        3.49080        1.56223
N          0.29069        2.18996       -0.18509
H         -0.47683        1.64095       -0.60265
C          1.66706        1.96411       -0.61569
H          2.18892        2.92647       -0.56562
C          1.66010        1.43253       -2.05655
C          2.42117        0.94922        0.28824
H          2.00965       -0.05605        0.18934
O          0.90132        0.51449       -2.38463
C          3.92280        0.93740        0.09258
H          4.16890        0.59970       -0.91987
H          4.36710        0.23683        0.80180
H          4.35741        1.93127        0.25108
O          2.14782        1.30705        1.71275
H          1.96661        2.32125        1.76114
N          2.53541        2.00170       -2.90248
H          3.26727        2.61705       -2.55697
C          2.80143        1.44668       -4.22392
H          1.88910        1.48667       -4.82885
C          3.33025        0.00809       -4.09521
C          3.91185        2.32157       -4.85972
H          3.50445        3.30552       -5.10911
H          4.26160        1.84984       -5.78831
O          4.28740       -0.22958       -3.35540
O          4.95932        2.54060       -3.93582
H          5.31411        1.66390       -3.69297
N          2.73240       -0.92637       -4.87543
H          1.95858       -0.64417       -5.46283
C          3.20735       -2.29897       -4.97009
H          3.39962       -2.56611       -6.01301
H          4.15765       -2.34879       -4.43182
C          2.28290       -3.38368       -4.39988
O          2.48018       -4.55101       -4.69659
N          1.29258       -2.97556       -3.54736
H          1.17306       -1.99006       -3.34569
C          0.39693       -3.94657       -2.93588
H          0.89221       -4.91661       -3.01149
C         -0.92216       -4.02676       -3.71026
C          0.08557       -3.60590       -1.46485
H         -0.39227       -2.61738       -1.43017
H         -0.65729       -4.32902       -1.10166
O         -1.62023       -3.07053       -4.00134
C          1.31056       -3.62100       -0.54401
H          1.75898       -4.62429       -0.54587
H          2.06717       -2.93590       -0.94589
C          0.95384       -3.21332        0.89244
H          0.20113       -3.90840        1.29136
H          0.49837       -2.21226        0.88946
C          2.14745       -3.19388        1.85203
H          1.79554       -2.88869        2.84387
H          2.54887       -4.21560        1.95873
N          3.16779       -2.21744        1.42498
H          3.71688       -2.61417        0.66315
H          3.83170       -2.08092        2.18637
O         -1.26013       -5.28765       -4.00262
H         -2.11889       -5.26633       -4.46953
H          1.20787        0.92885        1.99654
