116
118
N         -3.69522        0.65938       -1.80901
H         -3.65769       -0.18959       -0.09216
H         -2.71365        0.93308       -1.75800
H         -4.25290        1.50046       -1.93729
C         -3.88145       -0.26358       -2.93119
H         -4.91817       -0.62472       -2.90526
C         -2.93580       -1.45520       -2.69356
C         -3.63484        0.32055       -4.34755
H         -3.88388       -0.47296       -5.07332
O         -1.97566       -1.36485       -1.94174
C         -4.49752        1.54359       -4.65633
H         -5.56540        1.31262       -4.56978
H         -4.31924        1.88619       -5.68289
H         -4.25862        2.37387       -3.98352
O         -2.24310        0.62056       -4.41207
H         -2.07100        1.09080       -5.24251
N         -3.19679       -2.60432       -3.39579
H         -4.09010       -2.67303       -3.87289
C         -2.66474       -3.89080       -2.93280
H         -3.12661       -4.15692       -1.97464
C         -1.15901       -3.87150       -2.63631
C         -2.98532       -4.99972       -3.96575
H         -2.45677       -4.77654       -4.89934
H         -2.56803       -5.93240       -3.57015
O         -0.72285       -4.52976       -1.69019
C         -4.47001       -5.15336       -4.22735
C         -5.30128       -5.77804       -3.28519
H         -4.86861       -6.18362       -2.37318
C         -5.04875       -4.65039       -5.40131
H         -4.41485       -4.18398       -6.15315
C         -6.67183       -5.89588       -3.51087
H         -7.29904       -6.38958       -2.77382
C         -6.42277       -4.76688       -5.62987
H         -6.85159       -4.38063       -6.55060
C         -7.23730       -5.38876       -4.68409
H         -8.30464       -5.48568       -4.86125
N         -0.35386       -3.21077       -3.51110
H         -0.78408       -2.48881       -4.07815
C          1.07880       -3.06716       -3.23331
H          1.39800       -4.02618       -2.81535
C          1.32498       -1.96617       -2.17088
C          1.83984       -2.77209       -4.52190
H          2.91579       -2.73526       -4.32850
H          1.54829       -1.80089       -4.93272
H          1.64271       -3.55467       -5.26045
O          1.73699       -0.84651       -2.50093
N          1.08446       -2.32705       -0.88675
H          0.64200       -3.23453       -0.75230
C          1.00065       -1.34979        0.21500
H          0.53089       -0.44321       -0.18190
C          2.40071       -0.93428        0.72938
C          0.15457       -1.87415        1.38629
H          0.30075       -1.17973        2.21632
H          0.56333       -2.83410        1.72460
O          2.73351       -1.04630        1.91684
C         -1.34465       -2.02724        1.11391
H         -1.54303       -2.73708        0.30408
H         -1.83537       -2.44751        2.00124
C         -2.05105       -0.73311        0.75110
O         -3.35333       -0.93068        0.50217
O         -1.50895        0.35667        0.66604
N          3.21350       -0.37269       -0.19727
H          2.84503       -0.28108       -1.14982
C          4.58275        0.03572        0.11042
H          4.96425       -0.66544        0.86231
C          4.59286        1.44121        0.76041
C          5.44475       -0.02834       -1.14626
H          6.48187        0.23145       -0.91469
H          5.07459        0.66335       -1.91081
H          5.42603       -1.04158       -1.55717
O          5.11317        2.44131        0.22861
N          3.95976        1.50982        1.93927
H          3.56088        0.64115        2.30271
C          3.76510        2.76117        2.64927
H          3.32710        3.48570        1.95212
C          5.11816        3.32531        3.12023
C          2.82465        2.56784        3.85843
H          3.32448        1.90625        4.57875
H          2.71825        3.54212        4.35479
O          6.09218        2.62357        3.36488
C          1.42064        2.00867        3.53663
H          1.54191        0.99755        3.12653
C          0.61545        1.88001        4.83886
H          0.44992        2.86262        5.29927
H          1.13239        1.24863        5.57108
H         -0.36621        1.43442        4.64489
C          0.65824        2.84815        2.50165
H          0.47763        3.86620        2.87242
H         -0.30973        2.38896        2.27622
H          1.19863        2.92410        1.55083
N          5.14328        4.69115        3.22587
H          4.26050        5.19101        3.19333
C          6.20016        5.38926        3.93862
H          6.81073        4.63919        4.45260
C          5.53687        6.28424        4.98710
C          7.10454        6.24801        3.01775
H          7.66591        6.94433        3.64944
H          6.46038        6.85604        2.36934
O          4.35211        6.53545        5.01840
C          8.12848        5.47955        2.16571
H          8.79703        4.91330        2.82905
H          8.74615        6.22739        1.65001
C          7.53761        4.52748        1.12053
H          6.76408        5.02201        0.52491
H          7.09980        3.64823        1.59534
N          8.61198        4.10486        0.19662
H          9.56218        4.15189        0.54195
N          7.23071        3.10087       -1.38288
H          7.09118        2.85325       -2.35246
H          6.45363        2.86797       -0.73050
N          9.49236        3.39600       -1.81996
H         10.31894        3.96300       -1.70283
H          9.45333        2.79045       -2.62597
C          8.42926        3.52609       -0.99251
O          6.43296        6.78355        5.85767
H          5.94357        7.35535        6.48038
