21
conf-306
 N  -0.21668852  -2.46223262   3.79455092
 H  -0.75397064  -2.82690163   4.56703427
 H   0.08732580  -3.25199821   3.23526236
 C  -1.04311022  -1.61416595   2.95696487
 H  -1.10138039  -0.61703775   3.41301061
 C  -0.35779852  -1.48768569   1.59567150
 C  -2.47833923  -2.12385679   2.75967439
 H  -2.43848507  -3.14182321   2.35405040
 H  -2.97875689  -1.49973554   2.01484960
 O   0.31946553  -2.39115226   1.13885996
 C  -3.30151653  -2.10328296   4.04591066
 H  -3.33956068  -1.08323926   4.44091937
 H  -2.86879371  -2.73757164   4.82203774
 C  -4.71712402  -2.55715840   3.84392245
 O  -5.31167404  -3.33845312   4.54119637
 O  -5.29875075  -1.95353126   2.77774908
 N  -0.58133616  -0.31850826   0.93544285
 H  -1.24270526   0.33895807   1.30816646
 C  -0.14220990  -0.10646075  -0.43382680
 H  -0.55936499   0.86843357  -0.70976207
 C   1.38566345   0.01610221  -0.57491025
 C  -0.68705513  -1.14899634  -1.42225454
 H  -0.33174157  -0.87462942  -2.41550175
 H  -0.25879331  -2.11987380  -1.18739033
 O   1.95694697  -0.29802959  -1.60974506
 C  -2.18213625  -1.19644792  -1.37675018
 C  -2.85114073  -2.20476330  -0.68167659
 H  -2.27860877  -2.96350973  -0.16031165
 C  -2.94835067  -0.21286191  -2.00437534
 H  -2.43575066   0.58508168  -2.53108596
 C  -4.24148115  -2.24420371  -0.63534389
 H  -4.75989383  -3.02366957  -0.09336812
 C  -4.34238334  -0.24181173  -1.96780576
 H  -4.91240648   0.53265054  -2.46926477
 O  -6.34835539  -1.35572730  -1.18717370
 H  -6.74539513  -0.63140949  -1.67772652
 C  -4.98784379  -1.26203937  -1.27653579
 N   2.02782826   0.59118964   0.46810308
 H   1.56662969   0.70854596   1.35520466
 C   3.45443317   0.80270932   0.42487170
 H   3.87271264   0.14291949  -0.34129711
 C   4.04996330   0.44549469   1.77007112
 C   3.83307255   2.25074853   0.07794467
 H   3.42619959   2.92384478   0.83633127
 H   4.92062496   2.32840227   0.12755558
 O   3.43614958   0.35299039   2.80229385
 C   3.35760012   2.67314765  -1.30384053
 H   2.26950248   2.67761715  -1.34118981
 H   3.68761815   1.93325501  -2.03820917
 C   3.86839133   4.04704671  -1.69857409
 H   3.52941739   4.78640209  -0.96789546
 H   4.96177720   4.05721445  -1.68278510
 C   3.39210494   4.46355158  -3.07228796
 H   3.74057505   3.73489861  -3.80795464
 H   2.29986424   4.44329023  -3.09173655
 N   3.86799184   5.81741264  -3.45119158
 H   3.54297064   6.09816654  -4.37690253
 H   4.88664768   5.85739862  -3.45807996
 H   3.54137512   6.51704011  -2.78554859
 O   5.38387333   0.27544363   1.69091411
 H  -6.20790615  -2.27631806   2.74090105
 H   5.67942467   0.08125883   2.58917433
