21
conf-14
 N  -3.15175842  -2.24599018   2.96932087
 H  -3.41217359  -2.92202207   3.67362910
 H  -3.72775762  -1.42103407   3.11407079
 C  -1.76035704  -1.85876596   3.13941329
 H  -1.12756473  -2.66478067   2.74292178
 C  -1.54283526  -0.60760438   2.29597551
 C  -1.34452419  -1.57474566   4.58774851
 H  -2.00814802  -0.81373721   5.00125834
 H  -0.33777832  -1.15742079   4.59766718
 O  -2.36575544   0.29514168   2.26791612
 C  -1.36772769  -2.83033513   5.45819044
 H  -0.71793332  -3.59409969   5.01933575
 H  -2.37020018  -3.25514285   5.53873498
 C  -0.88167502  -2.57825774   6.85640310
 O  -1.43510472  -2.93150762   7.86607855
 O   0.29870353  -1.91439893   6.87236868
 N  -0.38139832  -0.55862467   1.59686762
 H   0.38984650  -1.17815816   1.79394102
 C  -0.05421862   0.56933200   0.75910047
 H  -0.62963080   1.42576861   1.11573221
 C   1.45186589   0.80926082   0.88596298
 C  -0.41762918   0.31168533  -0.71725379
 H  -0.15442665   1.19947877  -1.29661854
 H   0.20666453  -0.50976763  -1.07800757
 O   2.20495889  -0.04562951   1.30817361
 C  -1.87132383  -0.02156095  -0.91077131
 C  -2.33307448  -1.33533687  -0.77232260
 H  -1.62571273  -2.12032096  -0.51892134
 C  -2.81058821   0.96516818  -1.21570444
 H  -2.48520530   1.99173156  -1.34209573
 C  -3.68131290  -1.65211047  -0.90745900
 H  -4.02694336  -2.67029186  -0.77919394
 C  -4.16382175   0.66269641  -1.36004114
 H  -4.86900773   1.45191154  -1.59589008
 O  -5.90920486  -1.02146821  -1.33567891
 H  -6.43547155  -0.24394154  -1.53774668
 C  -4.59891613  -0.65156188  -1.20570839
 N   1.88198238   2.01018108   0.39971977
 H   1.20407755   2.75364024   0.34564646
 C   3.24751891   2.44490466   0.63794235
 H   3.85778314   1.55345014   0.78360590
 C   3.28430088   3.29594389   1.88839248
 C   3.76116267   3.24869944  -0.56025119
 H   3.58969390   2.63795007  -1.44891799
 H   3.14816570   4.14873916  -0.66577929
 O   2.39030519   4.01388152   2.26069971
 C   5.23342751   3.61804305  -0.48121544
 H   5.82229707   2.71077111  -0.31463740
 H   5.42100537   4.26874110   0.37498520
 C   5.71737779   4.29963668  -1.74812147
 H   5.53446673   3.65050090  -2.60891127
 H   5.14692451   5.21781971  -1.91193642
 C   7.19004949   4.64086265  -1.69536779
 H   7.37686364   5.28274214  -0.83115580
 H   7.76437387   3.72367440  -1.54433394
 N   7.65894121   5.32111283  -2.92835474
 H   8.65178106   5.55394566  -2.88960357
 H   7.14576499   6.18825452  -3.08316574
 H   7.51339737   4.73210980  -3.74762735
 O   4.46721071   3.20003070   2.53028328
 H   0.54087421  -1.81719717   7.80146048
 H   4.41688453   3.80497403   3.28035928
