21
conf-273
 N  -0.29337421  -3.54466577   3.19036528
 H  -0.82831681  -4.07686583   3.85782442
 H  -0.10257003  -4.14285829   2.39405712
 C  -1.04334592  -2.39865265   2.71619523
 H  -0.86216065  -1.55172296   3.39426755
 C  -0.50841952  -2.02736392   1.32914849
 C  -2.56174393  -2.62141931   2.63758156
 H  -2.76498381  -3.51535303   2.04799188
 H  -3.01540743  -1.78240236   2.10328390
 O  -0.00750174  -2.85924463   0.59065926
 C  -3.20701384  -2.75113574   4.01508880
 H  -3.03065501  -1.86446038   4.62472623
 H  -2.79078272  -3.60664371   4.55839763
 C  -4.69222787  -2.95916377   3.94354216
 O  -5.51507548  -2.37767410   4.60262564
 O  -5.02523769  -3.92344250   3.05321648
 N  -0.74244955  -0.73101927   0.97193913
 H  -0.96269778  -0.10312989   1.72385976
 C  -0.11495107  -0.09988028  -0.18130067
 H  -0.63887092   0.85195889  -0.31579136
 C   1.36557409   0.20819362   0.11281784
 C  -0.29711868  -0.91055615  -1.47488538
 H   0.37006458  -1.76719214  -1.47229230
 H  -1.31676088  -1.29105807  -1.45916448
 O   2.02746717  -0.37820014   0.94985460
 C  -0.07978362  -0.07023991  -2.70149667
 C  -1.06329619   0.81766898  -3.13404719
 H  -1.99825606   0.86784981  -2.58510166
 C   1.12598928  -0.10655763  -3.39872676
 H   1.92480692  -0.74387308  -3.02947271
 C  -0.86262904   1.63804375  -4.23856553
 H  -1.62952973   2.32234306  -4.57536884
 C   1.34965776   0.72421548  -4.49158861
 H   2.31065310   0.69887415  -4.99563726
 O   0.50842966   2.42665077  -5.99423738
 H   1.39016361   2.29904643  -6.35403831
 C   0.35160762   1.59409467  -4.91954842
 N   1.89493545   1.21505844  -0.63689336
 H   1.36787498   1.57078916  -1.42112619
 C   3.32437881   1.46288454  -0.59463997
 H   3.85206980   0.50315518  -0.65762176
 C   3.68360553   2.12901054   0.72104649
 C   3.73209106   2.35857048  -1.76705572
 H   3.36669671   1.88116972  -2.68272505
 H   3.20752826   3.31141255  -1.66417895
 O   3.04006623   2.98367053   1.27122795
 C   5.23069227   2.58534580  -1.87317604
 H   5.73195303   1.61347212  -1.93231753
 H   5.59570680   3.06686620  -0.96433912
 C   5.59673523   3.41158939  -3.09483485
 H   5.18976230   2.92783898  -3.98860768
 H   5.12814808   4.39797195  -3.02724945
 C   7.09101085   3.58011012  -3.29325895
 H   7.56271213   2.59350545  -3.28693757
 H   7.29258141   4.02290440  -4.27030255
 N   7.71807298   4.41792464  -2.23867393
 H   8.72846859   4.49396566  -2.35786800
 H   7.55020001   4.02448354  -1.31367339
 H   7.33141762   5.36168286  -2.23759976
 O   4.87625491   1.68705001   1.18360342
 H  -5.98617051  -4.00546563   3.09018643
 H   5.03620420   2.16990516   2.00375437
