21
conf-302
 N  -0.67080569  -2.69519071   3.78440294
 H  -1.15425766  -3.05827748   4.59825559
 H  -0.53166005  -3.47472154   3.14965974
 C  -1.50936342  -1.71616255   3.11011524
 H  -1.47333702  -0.77192517   3.67028056
 C  -0.91799372  -1.51656309   1.72081737
 C  -2.96933615  -2.16827389   2.98577622
 H  -3.31440773  -2.45269307   3.98328543
 H  -2.99854008  -3.07086437   2.37566303
 O  -0.70022588  -2.47878410   0.99645776
 C  -3.90349999  -1.11694747   2.39982553
 H  -3.61316340  -0.86797849   1.37360470
 H  -3.87182292  -0.18446096   2.96887333
 C  -5.33200517  -1.59062090   2.33943880
 O  -5.70522779  -2.72939493   2.45922843
 O  -6.18451581  -0.56738842   2.10029945
 N  -0.71211050  -0.22430359   1.36400506
 H  -0.86880371   0.47954137   2.06537182
 C  -0.17143579   0.24769257   0.09332617
 H  -0.47519035   1.29770153   0.02074572
 C   1.35701812   0.19769336   0.08920898
 C  -0.72088548  -0.50180949  -1.12956440
 H  -0.37292715  -1.52880641  -1.10039344
 H  -1.80747285  -0.51819546  -1.04643510
 O   1.99895196  -0.83198642   0.22894996
 C  -0.29411116   0.15621711  -2.41467990
 C  -1.06924768   1.13591121  -3.03859502
 H  -2.03876895   1.39636553  -2.62994488
 C   0.94410677  -0.16183683  -2.98681574
 H   1.56406888  -0.90817328  -2.50208461
 C  -0.62492121   1.78577504  -4.18643714
 H  -1.22955831   2.54630386  -4.66358093
 C   1.39656251   0.47876762  -4.13878548
 H   2.35653084   0.21013036  -4.56329077
 O   1.00247712   2.12913083  -5.86110610
 H   1.86656865   1.80310565  -6.12417770
 C   0.61050426   1.46031037  -4.73388945
 N   1.96949549   1.38271433  -0.15827682
 H   1.44418133   2.23660050  -0.15932060
 C   3.41436538   1.45778531  -0.22712007
 H   3.76998413   0.60511168  -0.81297596
 C   4.05661310   1.33533575   1.14219906
 C   3.82923598   2.76358165  -0.91487753
 H   3.28855788   2.80330605  -1.86416797
 H   3.48447252   3.60731779  -0.31507748
 O   5.09639235   0.76396982   1.35921711
 C   5.32402232   2.86566212  -1.17454745
 H   5.65250037   1.97926948  -1.73039250
 H   5.87000165   2.84877463  -0.22606587
 C   5.70755423   4.11341210  -1.95763780
 H   5.32503241   5.00396532  -1.44656989
 H   6.79742784   4.20519274  -1.97769609
 C   5.20281583   4.11230721  -3.38553753
 H   5.54382468   3.20361977  -3.88797381
 H   4.11123985   4.09443741  -3.39359157
 N   5.65901910   5.30636293  -4.14075975
 H   5.31888586   5.31010407  -5.10252013
 H   6.67640548   5.34944365  -4.17338480
 H   5.33167963   6.16272085  -3.69591283
 O   3.36656262   1.98631732   2.10078812
 H  -7.06621815  -0.96048742   2.05647281
 H   3.86411328   1.86864465   2.91841953
