21
conf-797
 N   0.03950833  -2.34318765   3.66525569
 H   0.45169863  -3.13335461   3.17624489
 H   0.81995941  -1.72534117   3.85869276
 C  -0.88489399  -1.68752799   2.75036275
 H  -1.20566378  -0.74368294   3.20529554
 C  -0.22994990  -1.37154958   1.39864071
 C  -2.11677966  -2.56195126   2.54025133
 H  -1.79636148  -3.52153976   2.13537082
 H  -2.77775884  -2.11214667   1.79657572
 O   0.69906511  -2.02278636   0.95417233
 C  -2.88674242  -2.79320820   3.83749003
 H  -3.26839100  -1.85753692   4.25020414
 H  -2.23348849  -3.22860691   4.59791714
 C  -4.03476306  -3.74639219   3.65626738
 O  -4.17454249  -4.51657426   2.73989863
 O  -4.91319507  -3.67166363   4.68252167
 N  -0.76422756  -0.31243833   0.73741545
 H  -1.56346478   0.16252200   1.12219236
 C  -0.23111884   0.13834856  -0.54195955
 H  -0.72277563   1.09748261  -0.73174877
 C   1.28614609   0.38747846  -0.44495817
 C  -0.57146324  -0.81873539  -1.69771729
 H   0.05989900  -1.69942159  -1.62368220
 H  -1.60335347  -1.14678512  -1.56232989
 O   2.09273125  -0.04724862  -1.24955506
 C  -0.42726879  -0.15900957  -3.04259915
 C  -1.30190819   0.86042618  -3.42161557
 H  -2.08417529   1.16388794  -2.73376170
 C   0.57520457  -0.53094765  -3.93879827
 H   1.28505834  -1.29896714  -3.64852923
 C  -1.19697059   1.47893014  -4.66180395
 H  -1.87994285   2.26601132  -4.95716741
 C   0.70074763   0.08601327  -5.18121804
 H   1.49003732  -0.21949948  -5.86002201
 O  -0.12807708   1.73907579  -6.74470116
 H   0.60399482   1.38509786  -7.25573070
 C  -0.18947810   1.09303899  -5.54231727
 N   1.67522313   1.14551798   0.61361569
 H   1.05484328   1.32114038   1.38791748
 C   3.08260338   1.37273305   0.85745915
 H   3.63680906   0.44863767   0.66814354
 C   3.24921156   1.72753766   2.31735738
 C   3.68411399   2.45949099  -0.04544228
 H   4.75917463   2.48923487   0.14293259
 H   3.55136596   2.13065878  -1.07607163
 O   2.34382766   1.91153594   3.09201664
 C   3.08133769   3.84250708   0.14111069
 H   3.27664417   4.20334069   1.15522885
 H   1.99759377   3.77697407   0.03455116
 C   3.64781873   4.83007352  -0.86597794
 H   4.73756182   4.85614302  -0.76281529
 H   3.43269220   4.48125602  -1.88078152
 C   3.12468867   6.24349917  -0.69956372
 H   3.28872459   6.56278523   0.33323282
 H   3.68508210   6.92914518  -1.33762248
 N   1.67670418   6.35751995  -1.01234671
 H   1.32666362   7.30568190  -0.87327839
 H   1.12582611   5.74054041  -0.41632854
 H   1.48527073   6.09159736  -1.97807502
 O   4.54507286   1.82685291   2.66453741
 H  -5.59645704  -4.32913680   4.49562021
 H   4.55791746   2.04839389   3.60435030
