21
conf-137
 N  -0.13001552  -4.31558847   2.58212321
 H  -0.26573368  -4.83918064   1.72189338
 H   0.87586070  -4.20954380   2.65096063
 C  -0.74121440  -3.00684902   2.40470171
 H  -0.44231695  -2.37057190   3.24535528
 C  -0.28155004  -2.33204394   1.10309642
 C  -2.26082309  -3.13736988   2.42155020
 H  -2.55803993  -3.81725284   1.62309158
 H  -2.72408059  -2.17430279   2.20058006
 O   0.25602760  -2.96379309   0.20666004
 C  -2.78153012  -3.66538844   3.75371119
 H  -2.55055326  -2.98471095   4.57531901
 H  -2.31122696  -4.62165456   3.99765353
 C  -4.26489460  -3.90820833   3.72948290
 O  -4.94418768  -4.02970797   2.74143961
 O  -4.77430274  -4.01335538   4.97840629
 N  -0.55727878  -1.00116754   1.03224401
 H  -0.93152835  -0.56100956   1.85497898
 C  -0.20352608  -0.12203995  -0.08102460
 H  -0.81968721   0.77118685   0.05496562
 C   1.26812682   0.29388955   0.02415342
 C  -0.52800903  -0.72264824  -1.45039182
 H   0.12455904  -1.56648057  -1.64537856
 H  -1.54508119  -1.10781295  -1.39636408
 O   2.18323910  -0.39037784  -0.41938644
 C  -0.41851611   0.29595530  -2.55246013
 C  -1.50870880   1.07818169  -2.94195431
 H  -2.47257358   0.92890441  -2.47028277
 C   0.80125836   0.50357958  -3.20277189
 H   1.65611987  -0.09418181  -2.91176054
 C  -1.38867108   2.04467991  -3.93802466
 H  -2.23818785   2.64628425  -4.23512519
 C   0.93598777   1.47163897  -4.19625645
 H   1.89825085   1.62519905  -4.67462193
 O  -0.09225375   3.20258714  -5.53837562
 H   0.79606918   3.19795218  -5.90462698
 C  -0.16381140   2.24335747  -4.56490963
 N   1.49180350   1.47508421   0.65468748
 H   0.74229068   1.95872290   1.12420838
 C   2.83358650   1.90668516   0.96880591
 H   3.49840762   1.05059970   0.83133843
 C   2.88492502   2.34222736   2.41755301
 C   3.31936365   3.05140905   0.07047903
 H   2.68672702   3.92890151   0.22525104
 H   4.32689485   3.31985170   0.38864694
 O   1.92895039   2.60206371   3.10272088
 C   3.32696743   2.66151275  -1.39984861
 H   2.29926869   2.48935082  -1.73866665
 H   3.85221897   1.70762813  -1.50802755
 C   3.96411961   3.70179076  -2.30882051
 H   5.01699230   3.84150473  -2.04135372
 H   3.94143728   3.33387400  -3.34008397
 C   3.26660058   5.04514253  -2.26582017
 H   2.20155445   4.90841864  -2.47058376
 H   3.35179695   5.47465373  -1.26571880
 N   3.84225231   6.00375209  -3.24342625
 H   3.36589481   6.90564789  -3.22903366
 H   3.77668715   5.63583077  -4.19095126
 H   4.82822963   6.17402641  -3.05062694
 O   4.15463566   2.44001836   2.85935992
 H  -5.71750014  -4.19197927   4.86635322
 H   4.09471585   2.74212349   3.77455556
