21
conf-883
 N  -7.89268765   2.32482495   2.76709846
 H  -8.05874190   2.90339839   3.59181306
 H  -8.78090700   2.03680092   2.36408782
 H  -7.37224610   2.89395923   2.09267065
 C  -7.02622343   1.16888506   3.07458952
 H  -7.21617950   0.82595325   4.09463805
 C  -5.58468526   1.65202644   2.97801674
 C  -7.26165662   0.02056511   2.10281108
 H  -6.58842503  -0.81112888   2.31418253
 H  -8.29110676  -0.34052971   2.16913527
 H  -7.08048332   0.34873579   1.07559373
 O  -5.29013370   2.63249744   2.30132491
 N  -4.66560621   0.92725315   3.65899494
 H  -4.93081154   0.03176058   4.03062181
 C  -3.24369126   1.21686077   3.52249147
 H  -3.15705720   2.30210127   3.48742864
 C  -2.73291453   0.62060264   2.21704363
 C  -2.45806953   0.69102846   4.71761387
 H  -2.45626631  -0.40027677   4.69491410
 H  -2.98859978   0.99351642   5.62164275
 O  -2.18043705  -0.47343505   2.15819395
 C  -1.04928231   1.21946786   4.76346809
 C  -0.43306269   2.09904204   3.91002069
 H  -0.78860646   2.53193364   2.99064610
 C  -0.06372841   0.88690756   5.76440635
 C   1.10592093   1.60300974   5.46934800
 C  -0.08894699   0.03530463   6.87876590
 H  -0.98112857  -0.52983365   7.13116922
 N   0.85779007   2.33477478   4.33108724
 H   1.49437910   2.98358065   3.91428656
 C   2.21374105   0.65738989   7.34363287
 H   3.09053748   0.55446232   7.97173863
 C   2.26083250   1.50663020   6.24606933
 H   3.15249904   2.07149433   5.99953394
 C   1.05210219  -0.06948286   7.65597173
 H   1.05373861  -0.72207454   8.52119990
 N  -2.97663468   1.35285863   1.10146212
 H  -3.38476860   2.27382856   1.20420628
 C  -2.29410989   1.01037926  -0.13523200
 H  -2.54981910  -0.02669591  -0.37091910
 C  -0.78402180   1.12636771   0.05722983
 C  -2.79741067   1.91979883  -1.24421289
 H  -2.27349955   1.70948146  -2.18029512
 H  -2.58342557   2.95974132  -0.96357058
 O  -0.26583051   2.14543306   0.50851830
 O  -4.17379780   1.70395498  -1.49093122
 H  -4.61105158   1.64132241  -0.63790506
 N  -0.08996698   0.01502459  -0.27398211
 H  -0.55090624  -0.74896982  -0.74233818
 C   1.35092409  -0.07196019  -0.15684262
 H   1.70888126   0.92322118   0.10729906
 C   1.88696959  -0.49559260  -1.51798755
 C   1.78639481  -1.06112870   0.94371779
 H   1.37454032  -2.03359122   0.66549233
 O   1.38030397  -1.41036416  -2.14701646
 C   3.30872996  -1.18018897   1.02962160
 H   3.74900891  -0.20420770   1.26389454
 H   3.58166214  -1.86881476   1.83143716
 H   3.75988911  -1.54198338   0.10200918
 C   1.22527685  -0.65389951   2.30600999
 H   1.62620220   0.32607187   2.59353744
 H   1.53261823  -1.38404428   3.05779316
 H   0.13960647  -0.59429312   2.31232484
 N   2.95478015   0.21576054  -1.97873657
 H   3.48505743   0.74154107  -1.30271572
 C   3.69920097  -0.24663692  -3.13551593
 H   2.97146628  -0.68956860  -3.81521488
 C   4.71164648  -1.31192991  -2.70654137
 C   4.42602985   0.92214782  -3.78575622
 H   4.94903459   0.59123683  -4.68613044
 H   5.16138077   1.32923434  -3.08955927
 H   3.71658438   1.70498602  -4.05649028
 O   5.39554248  -1.17265543  -1.68992431
 N   4.83744934  -2.37082831  -3.53363871
 H   4.48382785  -2.38213032  -4.48433750
 C   5.92628200  -3.29839813  -3.37535138
 H   6.85394906  -2.74613223  -3.15915384
 C   6.06133984  -3.99655443  -4.75918454
 C   5.68798498  -4.30225981  -2.24480703
 H   5.28267247  -3.73450240  -1.40470292
 H   4.92729155  -5.02087859  -2.56044095
 O   6.91219532  -4.88878815  -4.86203870
 C   6.98759962  -4.99747892  -1.85678522
 H   7.53155276  -5.26040555  -2.76357499
 H   7.61618032  -4.29454250  -1.30505866
 C   6.78851478  -6.25205485  -1.03097337
 H   7.75827432  -6.73227711  -0.87221172
 H   6.15883507  -6.96510959  -1.57840437
 N   6.18955715  -5.92142776   0.27685399
 H   5.55781302  -5.13257099   0.25541471
 N   6.22421059  -8.15627341   0.96827326
 H   6.22826322  -8.78936395   1.75157536
 H   6.89075505  -8.35323280   0.24086836
 N   5.11672381  -6.52718286   2.24313045
 H   5.08013824  -7.18836545   3.00369418
 H   5.15767300  -5.56040926   2.53612943
 C   5.86365329  -6.87294307   1.16485852
 O   5.30456721  -3.56505057  -5.65310829
