21
conf-950
 N  -9.39109312   0.49757982   2.75311336
 H  -9.86828905   1.02614522   3.48469002
 H  -10.03450132  -0.16791466   2.33209249
 H  -9.07130586   1.16800502   2.04789471
 C  -8.16951232  -0.16027590   3.25719224
 H  -8.31284195  -0.46285107   4.29779861
 C  -7.03531605   0.86238932   3.18772504
 C  -7.81042108  -1.38239076   2.41726340
 H  -6.87973891  -1.83572697   2.76849732
 H  -8.60517598  -2.13146215   2.46540872
 H  -7.67485111  -1.09425111   1.37119783
 O  -7.09429499   1.81689534   2.42513094
 N  -5.97519200   0.61754369   4.00724560
 H  -5.92298501  -0.30806904   4.40471742
 C  -4.66418591   1.16402528   3.70824385
 H  -4.79759932   1.98246860   3.00643383
 C  -3.83973495   0.04393436   3.05866300
 C  -3.95760377   1.68968065   4.96169447
 H  -2.93246430   1.97196924   4.69452697
 H  -3.86930324   0.88859978   5.70093806
 O  -4.05031392  -1.12967397   3.31734759
 C  -4.66519496   2.87681171   5.55822338
 C  -5.75576127   3.55862086   5.08065540
 H  -6.34254629   3.36145023   4.20006928
 C  -4.28729552   3.54048989   6.78236471
 C  -5.18755819   4.59765497   6.98723505
 C  -3.26481131   3.31050973   7.71146972
 H  -2.55710829   2.49834666   7.57530915
 N  -6.07765411   4.58572148   5.93809905
 H  -6.82553515   5.24108634   5.80904310
 C  -4.08486613   5.20352938   8.99913395
 H  -3.98606562   5.83954470   9.87049098
 C  -5.10571194   5.44685636   8.09246815
 H  -5.81140593   6.25841937   8.23094794
 C  -3.17444635   4.14694195   8.81092312
 H  -2.39114881   3.98913284   9.54293147
 N  -2.85925124   0.45223311   2.21678991
 H  -2.58794172   1.42109771   2.16299713
 C  -1.88811884  -0.47770325   1.68364154
 H  -1.56666864  -1.16273336   2.47619166
 C  -0.69230392   0.38426272   1.22228507
 C  -2.48352899  -1.32154302   0.56101719
 H  -2.61732857  -0.71085470  -0.33989437
 H  -3.45936718  -1.67471738   0.89617463
 O  -0.67107448   1.58665598   1.43748224
 O  -1.60341612  -2.42189757   0.31876268
 H  -1.91301707  -2.88766631  -0.46254362
 N   0.27691069  -0.29472513   0.56805833
 H   0.13254216  -1.28910488   0.45429558
 C   1.58928331   0.23824466   0.20776658
 H   1.99138294  -0.46532365  -0.53127388
 C   2.51755977   0.19608032   1.42155044
 C   1.60167804   1.62837665  -0.44044542
 H   1.28540107   2.35383361   0.30798787
 O   2.48017030   1.01847686   2.33133845
 C   3.02656136   1.96670288  -0.89408508
 H   3.35775910   1.24043901  -1.64186551
 H   3.06223470   2.96031319  -1.34730127
 H   3.73711632   1.94759844  -0.06475439
 C   0.64973064   1.67999219  -1.63213458
 H   0.95475816   0.96338056  -2.39966422
 H   0.66245324   2.67826444  -2.07627763
 H  -0.37399882   1.45593290  -1.33626552
 N   3.39374419  -0.84593595   1.43642409
 H   3.60313579  -1.28986058   0.56081039
 C   4.44896478  -0.86095279   2.43850116
 H   3.95704926  -0.85758501   3.41458893
 C   5.28968320   0.40946153   2.30300491
 C   5.31664062  -2.09346843   2.26062000
 H   6.10278735  -2.12233803   3.01818956
 H   5.78842578  -2.07022998   1.27716751
 H   4.71219784  -2.99829055   2.34504876
 O   5.74945577   0.76458771   1.22173193
 N   5.51649321   1.09245602   3.44689003
 H   5.01556947   0.86652789   4.29098110
 C   6.14912812   2.39199202   3.42003803
 H   7.02858464   2.33456596   2.77486572
 C   6.54397247   2.65581104   4.89249772
 C   5.18573314   3.46686453   2.89395341
 H   4.82274457   3.07645771   1.93796383
 H   4.31369623   3.51952991   3.55338680
 O   7.73907446   2.99463754   5.07985912
 C   5.76845800   4.86756747   2.65859825
 H   6.81253429   4.79753987   2.34072737
 H   5.22285446   5.30760569   1.81864625
 C   5.64903382   5.83311925   3.83164518
 H   4.63675986   5.77668538   4.24492446
 H   5.80362809   6.85797943   3.48547787
 N   6.63955156   5.55973241   4.88514375
 H   7.38312690   4.91366188   4.63950328
 N   5.32440242   6.36697942   6.60971159
 H   5.25112183   6.53473028   7.60182303
 H   5.14187614   7.17674502   6.03018076
 N   7.05149364   4.79689642   7.02214001
 H   6.65309375   4.59985193   7.93026568
 H   7.44249648   3.96096796   6.55364421
 C   6.33566975   5.56146144   6.19126526
 O   5.64807702   2.50511303   5.72940916
