21
conf-797
 N  -8.53170085   1.98148004   5.36673915
 H  -7.95359987   1.42112820   5.99810708
 H  -9.50958346   1.73463035   5.51322897
 H  -8.38146696   2.95959535   5.61953395
 C  -8.09886452   1.75401309   3.97497603
 H  -8.19263087   0.68612294   3.75022794
 C  -6.62474752   2.14679777   3.86944687
 C  -8.93615153   2.55756264   2.99167143
 H  -8.62291848   2.36385414   1.96470846
 H  -9.99341331   2.30028354   3.09003643
 H  -8.82009587   3.62509549   3.19216529
 O  -6.13393267   2.99277185   4.60825834
 N  -5.92470439   1.52868802   2.89130646
 H  -6.33345512   0.84904802   2.26873633
 C  -4.50680769   1.72640434   2.71636866
 H  -4.30140201   2.79475607   2.58560282
 C  -4.14471570   0.96780270   1.43415013
 C  -3.67807743   1.24786936   3.92797567
 H  -3.87030349   1.93392759   4.74682630
 H  -2.62112471   1.32469094   3.65943200
 O  -4.94495786   0.25415747   0.85534871
 C  -4.00969598  -0.15524604   4.35040531
 C  -3.56889996  -1.30883299   3.76690719
 H  -2.91113623  -1.43385039   2.92446061
 C  -4.87311662  -0.56128023   5.43755308
 C  -4.92152967  -1.96650752   5.43538242
 C  -5.59338393   0.14454391   6.41216653
 H  -5.57006771   1.22695501   6.44167744
 N  -4.11821287  -2.39877150   4.40287291
 H  -3.93853315  -3.35517991   4.16516668
 C  -6.39428363  -1.97074429   7.29844298
 H  -6.99827844  -2.49550971   8.02866286
 C  -5.67975304  -2.69503616   6.35632297
 H  -5.70470183  -3.77860383   6.33204957
 C  -6.35271571  -0.56619332   7.32028990
 H  -6.92518188  -0.03020569   8.06740201
 N  -2.85673544   1.10096608   1.02800847
 H  -2.32008600   1.88261340   1.36346630
 C  -2.45093291   0.58305884  -0.26554746
 H  -2.85436602  -0.42315340  -0.36299317
 C  -0.92887181   0.58137370  -0.29363547
 C  -2.99218853   1.45978507  -1.39931055
 H  -4.07606932   1.35244623  -1.41929060
 H  -2.58509092   1.11755779  -2.36223542
 O  -0.29736094   1.59268398   0.02919171
 O  -2.72740094   2.83555345  -1.17604305
 H  -1.76784551   2.93211061  -1.13355759
 N  -0.32152861  -0.55050284  -0.69053322
 H  -0.85997690  -1.32800985  -1.03198867
 C   1.13333849  -0.63310664  -0.75940691
 H   1.51015794  -0.02495889   0.06865847
 C   1.59303539  -0.01070973  -2.08119476
 C   1.66202762  -2.06476574  -0.59951296
 H   1.34815270  -2.62282809  -1.48337270
 O   1.87094298  -0.67323772  -3.07429161
 C   3.19379079  -2.04365199  -0.52960777
 H   3.51500638  -1.44465252   0.32524667
 H   3.58620067  -3.05481060  -0.40829605
 H   3.62807599  -1.60772721  -1.43279973
 C   1.10134913  -2.74207126   0.64621907
 H   1.37922721  -2.17959829   1.54189872
 H   1.51148039  -3.75028448   0.73921778
 H   0.01523368  -2.82483965   0.61219792
 N   1.63631611   1.34447020  -2.09872951
 H   1.38638963   1.85678162  -1.26583251
 C   2.38941688   1.99314297  -3.14983828
 H   1.95828136   1.67510389  -4.10489753
 C   3.84855810   1.50119785  -3.12817377
 C   2.30248541   3.50708216  -3.01491215
 H   2.87483492   4.00372045  -3.80216805
 H   2.70288637   3.82182886  -2.04910787
 H   1.26244120   3.82733849  -3.08685025
 O   4.42848490   1.12974399  -2.12082781
 N   4.44073241   1.52700057  -4.35839037
 H   4.12787506   2.17950037  -5.06815458
 C   5.85387846   1.32946855  -4.48991353
 H   6.34284712   1.47269600  -3.51693627
 C   6.34086986   2.41469261  -5.50224581
 C   6.23661543  -0.03935515  -5.05060093
 H   5.74823637  -0.19017359  -6.01843165
 H   7.31501431  -0.02211763  -5.22977642
 O   7.55567209   2.50337516  -5.68128172
 C   5.87655706  -1.18452550  -4.11357423
 H   6.35846198  -1.02247887  -3.14500478
 H   4.80340923  -1.19486945  -3.93182048
 C   6.32249039  -2.51943243  -4.68135467
 H   7.39959660  -2.48243505  -4.86776148
 H   5.82934578  -2.69613831  -5.64590262
 N   6.02928871  -3.60791408  -3.72943840
 H   5.18304246  -3.48161591  -3.19375096
 N   7.02927645  -5.21296910  -5.11149193
 H   7.47374096  -6.11485395  -5.16246916
 H   7.47249086  -4.47091186  -5.62542316
 N   5.82997590  -5.85441196  -3.19704111
 H   6.23194166  -6.77505262  -3.28312808
 H   5.62260517  -5.57963307  -2.24712227
 C   6.31811706  -4.89074025  -4.01580144
 O   5.42023122   3.08625635  -6.02829712
