21
conf-102
 N  -4.05818742   5.61794909   0.99851719
 H  -4.30031827   6.25603969   1.75767677
 H  -4.13491734   6.09858744   0.10564307
 H  -3.09098227   5.31815932   1.15102204
 C  -4.87672791   4.38881497   1.03622249
 H  -5.89013569   4.63110486   1.36831746
 C  -4.23324434   3.45768264   2.05841489
 C  -4.93487842   3.72027979  -0.32892134
 H  -5.52934467   2.80652258  -0.29562045
 H  -5.37744897   4.39265359  -1.06864417
 H  -3.92842079   3.45764563  -0.66565081
 O  -3.04141576   3.56131711   2.34117128
 N  -5.03756543   2.51982027   2.60090496
 H  -5.98264509   2.42479931   2.27691808
 C  -4.56784703   1.58601302   3.61249005
 H  -3.83897325   2.12830001   4.21851363
 C  -3.89522611   0.38990756   2.93159026
 C  -5.73344466   1.11167825   4.48633210
 H  -5.40664368   0.24248805   5.05930207
 H  -6.53353683   0.76730225   3.83183891
 O  -4.41859176  -0.71468748   2.87269102
 C  -6.22001620   2.19190728   5.40071295
 C  -7.37817373   2.90694754   5.29285969
 H  -8.17885376   2.81897792   4.57458545
 C  -5.52299600   2.71716204   6.54773658
 C  -6.30420470   3.75957310   7.07339559
 C  -4.30279595   2.39301417   7.15396413
 H  -3.68704315   1.58490422   6.76723915
 N  -7.43356636   3.85610618   6.29410978
 H  -8.18164284   4.50748295   6.43244182
 C  -4.69531921   4.16479093   8.77075696
 H  -4.35106918   4.71569657   9.63777446
 C  -5.90637038   4.50393083   8.18748637
 H  -6.52213041   5.30784904   8.57479834
 C  -3.90409741   3.11703070   8.26308640
 H  -2.96476911   2.88102924   8.74823602
 N  -2.69284408   0.63983369   2.36163301
 H  -2.26425976   1.55755110   2.39777583
 C  -1.93410993  -0.43067141   1.77241247
 H  -2.10005037  -1.35104008   2.34023064
 C  -0.45508940  -0.04721116   1.78696069
 C  -2.38666171  -0.73049382   0.33231668
 H  -2.21398421   0.14541886  -0.30745820
 H  -3.44774083  -0.95939775   0.35613683
 O  -0.07405943   1.08656192   1.99532760
 O  -1.70467991  -1.87345975  -0.16706228
 H  -0.99751161  -1.58399049  -0.76313480
 N   0.39506606  -1.08299492   1.51488647
 H  -0.06256718  -1.88579066   1.10567237
 C   1.71739655  -0.79504850   0.97242895
 H   2.13220262   0.01693846   1.57031583
 C   1.56805154  -0.33751042  -0.47474885
 C   2.62881077  -2.03001665   1.05249326
 H   2.14565456  -2.80060546   0.44638703
 O   0.85630739  -0.95986373  -1.26279365
 C   4.01931826  -1.75004689   0.48102461
 H   4.51935962  -0.97416479   1.07018341
 H   4.62736191  -2.65651662   0.53784146
 H   4.00448549  -1.42594060  -0.56389577
 C   2.76469472  -2.53021879   2.48738046
 H   3.24083228  -1.76279869   3.10305259
 H   3.39428432  -3.42241274   2.51177840
 H   1.79869619  -2.77824377   2.92705965
 N   2.24707698   0.77717344  -0.82711663
 H   2.98859328   1.07709890  -0.21555274
 C   2.40718160   1.14655774  -2.22402664
 H   1.49832605   0.83576667  -2.73570386
 C   3.61751876   0.41551295  -2.81808075
 C   2.62842417   2.65046906  -2.33375331
 H   2.67930861   2.95589851  -3.38129176
 H   3.57061870   2.91561133  -1.85105503
 H   1.81258249   3.18738476  -1.84966291
 O   4.68038999   0.33410510  -2.19065857
 N   3.44519901  -0.07102587  -4.07538795
 H   2.71079507   0.28218329  -4.68420725
 C   4.54916555  -0.54308285  -4.86638218
 H   5.48534825  -0.06154695  -4.54685744
 C   4.21546651  -0.12845162  -6.33249856
 C   4.73054317  -2.06134041  -4.84630472
 H   3.75976873  -2.53940769  -5.00726366
 H   5.37000855  -2.32530288  -5.69507061
 O   5.08723961  -0.33067797  -7.18033791
 C   5.35531218  -2.56582848  -3.55454173
 H   6.35943140  -2.14392435  -3.45833108
 H   4.78312992  -2.20987301  -2.69641122
 C   5.45825661  -4.07995519  -3.53310935
 H   6.04173751  -4.40668442  -4.39872454
 H   4.46080340  -4.52635900  -3.62307788
 N   6.12365955  -4.52879598  -2.29490613
 H   5.93328213  -3.96919164  -1.47738368
 N   6.20363262  -6.76905143  -2.99560304
 H   6.80247152  -7.58088128  -2.95597096
 H   5.97435718  -6.45352279  -3.92550009
 N   6.95936721  -6.18295129  -0.87558179
 H   6.80112887  -7.13432939  -0.57912281
 H   6.95725616  -5.50386380  -0.12796995
 C   6.41015221  -5.81722665  -2.05857573
 O   3.07995765   0.37797418  -6.48882676
