21
conf-817
 N  -9.31231246   4.16237926   2.39471735
 H  -9.12139880   3.96184843   3.37863653
 H  -10.31380786   4.09111913   2.22655601
 H  -9.01123155   5.12456718   2.22216169
 C  -8.54040543   3.27112196   1.50346960
 H  -8.68158519   2.23522904   1.82304861
 C  -7.05896950   3.62965101   1.62859727
 C  -8.99912277   3.42420477   0.06122645
 H  -8.43178442   2.77290722  -0.60503689
 H  -10.05943041   3.17660766  -0.03420980
 H  -8.85541074   4.45688184  -0.26649840
 O  -6.70262743   4.74628970   1.97019411
 N  -6.18883066   2.64270422   1.29090689
 H  -6.49798398   1.79427699   0.84282375
 C  -4.76226706   2.85526895   1.29151757
 H  -4.59224906   3.93132640   1.23512346
 C  -4.18641070   2.11366454   0.08752845
 C  -4.10162339   2.33347724   2.58486358
 H  -3.01856887   2.45860644   2.49589017
 H  -4.30665110   1.26373430   2.67809715
 O  -4.74741924   1.14140530  -0.38596893
 C  -4.59978375   3.04878048   3.80792221
 C  -5.46902595   2.56139212   4.74195857
 H  -5.92605212   1.58643654   4.81028565
 C  -4.28875114   4.39763988   4.20669833
 C  -5.01977604   4.67035310   5.37690842
 C  -3.46442161   5.39092308   3.66487584
 H  -2.89476713   5.20422757   2.75796650
 N  -5.73538329   3.53368633   5.68371948
 H  -6.34793864   3.42584642   6.46905582
 C  -4.12426271   6.86602054   5.47906824
 H  -4.04403935   7.83404236   5.95934701
 C  -4.95468941   5.90179421   6.03245412
 H  -5.52733953   6.08929429   6.93341092
 C  -3.38530972   6.61502468   4.30983762
 H  -2.74846619   7.39210051   3.90611645
 N  -3.00020810   2.58773611  -0.37376600
 H  -2.49669988   3.28513204   0.15125730
 C  -2.25413015   1.91677133  -1.41422102
 H  -2.73957339   0.96088787  -1.59818905
 C  -0.81296457   1.74858536  -0.93535063
 C  -2.27930862   2.72747594  -2.70297780
 H  -1.66222613   2.23086188  -3.46465470
 H  -1.85136018   3.71827108  -2.50752896
 O  -0.26012578   2.61431406  -0.27072379
 O  -3.63861747   2.80939864  -3.11327288
 H  -3.70574003   3.45234032  -3.82306453
 N  -0.19553663   0.60197719  -1.31674289
 H  -0.62834092  -0.01582047  -1.99015770
 C   1.24198629   0.41218482  -1.17585698
 H   1.70309223   1.38854644  -1.00488245
 C   1.70666712  -0.19149118  -2.49864429
 C   1.59598318  -0.49332335   0.02393867
 H   1.12287229  -1.45967560  -0.16717613
 O   1.01439675  -0.99836666  -3.09968868
 C   3.10348932  -0.69762125   0.17458404
 H   3.59235798   0.26864788   0.34527315
 H   3.30704313  -1.32928725   1.04237040
 H   3.56686813  -1.16484796  -0.69480878
 C   1.03824628   0.09192947   1.31883323
 H   1.47475527   1.07777986   1.49777480
 H   1.29079329  -0.55613641   2.16013159
 H  -0.04463123   0.20294515   1.28943904
 N   2.91609296   0.23197665  -2.96570037
 H   3.54500051   0.65702221  -2.30095091
 C   3.56351994  -0.48226715  -4.05114555
 H   2.76764402  -0.97810700  -4.60411858
 C   4.50486872  -1.52999768  -3.45951269
 C   4.34222912   0.46959486  -4.94990655
 H   4.78051074  -0.07837076  -5.78808426
 H   5.15238191   0.93815083  -4.38705841
 H   3.68620711   1.24731160  -5.34289532
 O   5.21828359  -1.27211919  -2.48814299
 N   4.54132025  -2.72047735  -4.09867308
 H   4.19147514  -2.86706661  -5.04116082
 C   5.52226287  -3.71103095  -3.75158364
 H   6.50984949  -3.24366694  -3.65147698
 C   5.55522336  -4.70052695  -4.95466382
 C   5.22161395  -4.45748790  -2.45558421
 H   6.07037914  -5.11299543  -2.24333759
 H   5.17130973  -3.70597888  -1.66552909
 O   6.26667519  -5.70063121  -4.83796590
 C   3.92943532  -5.26381746  -2.49683233
 H   3.10294380  -4.62039526  -2.79146557
 H   4.00797161  -6.05477153  -3.24830668
 C   3.61984942  -5.87496870  -1.14398326
 H   3.53547525  -5.07342583  -0.40540026
 H   4.44096213  -6.53105792  -0.82955529
 N   2.34578504  -6.61531307  -1.20821290
 H   2.17076560  -7.06894551  -2.09272924
 N   2.40970561  -7.13725738   1.07127544
 H   1.87605989  -7.38344869   1.88877302
 H   3.10991547  -6.42654152   1.19742702
 N   0.78899004  -8.09028699  -0.33447685
 H   0.28817728  -8.39356930   0.48615187
 H   0.20214233  -7.89995528  -1.13500693
 C   1.84557410  -7.26417537  -0.14379869
 O   4.86430484  -4.34851209  -5.93713949
