21
conf-370
 N  -6.84939059   1.29749286   5.52416911
 H  -6.55248825   0.44557704   6.00181468
 H  -7.83602640   1.46785430   5.70228374
 H  -6.28720489   2.06955484   5.89412629
 C  -6.54974081   1.24372621   4.08013223
 H  -6.60868123   0.21112771   3.72774236
 C  -5.11097802   1.74189250   3.91152263
 C  -7.50361135   2.11506213   3.27690357
 H  -7.26746533   2.07652533   2.21254072
 H  -8.53624157   1.78188859   3.41161126
 H  -7.43651351   3.15662100   3.60241942
 O  -4.57660666   2.44060360   4.76476296
 N  -4.49425999   1.40842609   2.75895158
 H  -4.93141101   0.85305046   2.04160690
 C  -3.16454374   1.89388548   2.46774595
 H  -3.11583209   2.96349128   2.69946186
 C  -2.93552859   1.65961203   0.97701729
 C  -2.09938510   1.17607223   3.32159891
 H  -1.92483773   0.17221607   2.92049858
 H  -2.50558389   1.05436681   4.32427493
 O  -3.62574940   0.87080936   0.33527835
 C  -0.81934643   1.94562907   3.38768167
 C   0.32451538   1.74915744   2.66346914
 H   0.54453934   1.02006420   1.90849288
 C  -0.60294585   3.11455385   4.19363251
 C   0.70016729   3.56805862   3.93495611
 C  -1.41908895   3.81512253   5.09076513
 H  -2.43943556   3.49414686   5.28017815
 N   1.24723230   2.71820815   3.00081478
 H   2.17217681   2.78808612   2.62211502
 C   0.41480043   5.36768172   5.45606220
 H   0.79352626   6.24721660   5.96318394
 C   1.23320070   4.69784374   4.55906908
 H   2.24304852   5.03323511   4.35020736
 C  -0.89627745   4.93403909   5.72162499
 H  -1.50383557   5.48852562   6.42634783
 N  -1.90975966   2.34287135   0.43224399
 H  -1.28871864   2.84870370   1.04323469
 C  -1.46802208   2.10292119  -0.93286625
 H  -2.36822477   1.95183044  -1.52829994
 C  -0.60238064   0.84711289  -0.96191198
 C  -0.69281084   3.29866452  -1.43688138
 H  -0.27683165   3.07722740  -2.42543482
 H   0.14464384   3.49127165  -0.75407609
 O   0.63292273   0.89428008  -0.93766811
 O  -1.59912893   4.39499285  -1.48678644
 H  -1.09766569   5.18643470  -1.69802811
 N  -1.27296443  -0.32150093  -0.95840231
 H  -2.28103630  -0.31271043  -0.87011581
 C  -0.55744995  -1.58232643  -0.85268115
 H   0.37782674  -1.35737789  -0.32554140
 C  -0.23300003  -2.03817628  -2.28100473
 C  -1.32658122  -2.63946836  -0.05429531
 H  -2.21511834  -2.89769721  -0.63168296
 O  -0.87690368  -2.89291956  -2.87781398
 C  -0.46913037  -3.89217994   0.14474681
 H   0.43096521  -3.63387421   0.70803702
 H  -1.02231932  -4.64535720   0.71000743
 H  -0.16902041  -4.32807244  -0.80793400
 C  -1.74545390  -2.08955498   1.30616855
 H  -0.84997495  -1.78243183   1.86140176
 H  -2.26062509  -2.85605518   1.88630634
 H  -2.41569816  -1.23479925   1.21448725
 N   0.80387697  -1.39322700  -2.86030071
 H   1.26355518  -0.61246313  -2.40658816
 C   1.22024524  -1.73514164  -4.19934804
 H   1.12213877  -2.81609723  -4.31474228
 C   2.68654037  -1.32216786  -4.34470509
 C   0.35013086  -1.05300768  -5.25641228
 H   0.68341619  -1.32513837  -6.25934871
 H   0.41019270   0.03311421  -5.15079929
 H  -0.68566915  -1.36430352  -5.13267835
 O   3.15241886  -0.38224092  -3.72791190
 N   3.40873019  -2.03789201  -5.23562206
 H   3.03242041  -2.71970625  -5.88382210
 C   4.75444161  -1.67001425  -5.57678935
 H   4.82084256  -0.58957039  -5.76858655
 C   5.05875983  -2.47194574  -6.88266330
 C   5.76261903  -2.04248514  -4.48386892
 H   5.32551760  -1.77881139  -3.51891183
 H   5.88189209  -3.12554972  -4.49246493
 O   6.16036089  -2.27054764  -7.42215048
 C   7.08885881  -1.31693198  -4.68917854
 H   7.29143154  -1.24165518  -5.75394018
 H   6.99960648  -0.29182205  -4.31497219
 C   8.28026881  -1.98540697  -4.01159014
 H   8.19248035  -1.94101080  -2.92560863
 H   9.20139689  -1.46058581  -4.27712574
 N   8.44065705  -3.41890852  -4.33628011
 H   8.02286740  -4.05411852  -3.67420960
 N   8.96235740  -3.08175502  -6.60175072
 H   8.44107911  -3.18427253  -7.46932555
 H   9.12844710  -2.11733960  -6.35030646
 N   8.17771361  -5.13996468  -5.90450726
 H   8.61248455  -5.52036203  -6.73457206
 H   8.05895472  -5.79613478  -5.14224152
 C   8.51909286  -3.86353171  -5.59452895
 O   4.15981865  -3.24359640  -7.26780758
