21
conf-449
 N  -5.78878279  -1.24500058   3.04409609
 H  -5.13467822  -1.83944850   3.55448791
 H  -6.69508350  -1.70219662   2.98187976
 H  -5.87344039  -0.36576881   3.56256350
 C  -5.26475918  -0.87304595   1.71542491
 H  -4.62776830  -1.67278556   1.32972044
 C  -4.41319405   0.38506517   1.91681991
 C  -6.38964525  -0.59245885   0.72990653
 H  -5.99442323  -0.30702371  -0.24595468
 H  -7.01789651  -1.47780825   0.59982303
 H  -7.02116172   0.22300925   1.09267210
 O  -4.56239618   1.10173259   2.89943256
 N  -3.53578871   0.67739032   0.93465491
 H  -3.41236476   0.10367480   0.11598635
 C  -2.76330820   1.89845271   0.97599502
 H  -3.42182203   2.72971723   1.24822662
 C  -2.19714589   2.09324442  -0.42832771
 C  -1.63223202   1.81928598   2.02209487
 H  -0.81584187   1.21096778   1.62280142
 H  -2.02296455   1.29982993   2.89517693
 O  -2.12710519   1.16113249  -1.22304484
 C  -1.13620664   3.17061562   2.42563302
 C  -0.03977841   3.84811745   1.96795216
 H   0.68076812   3.57410057   1.22096036
 C  -1.80614844   4.05093266   3.34477468
 C  -1.05095666   5.23177502   3.42408658
 C  -2.98920381   3.93192500   4.08563484
 H  -3.60384718   3.03993687   4.00912222
 N   0.02148226   5.08526164   2.57547288
 H   0.74605252   5.76107652   2.43372066
 C  -2.58859635   6.15646944   4.97780496
 H  -2.90961365   6.96382212   5.62534123
 C  -1.42404374   6.30208578   4.23944292
 H  -0.82618377   7.20526785   4.29103698
 C  -3.36500615   4.98653757   4.90350292
 H  -4.27087593   4.91506988   5.49311029
 N  -1.75588558   3.33579674  -0.71447856
 H  -1.70113205   4.00756319   0.03387499
 C  -0.96993110   3.60076107  -1.91195896
 H  -1.45630171   3.07053081  -2.73040298
 C   0.44678776   3.06505140  -1.70550613
 C  -0.93472824   5.08829692  -2.17983544
 H  -0.24415273   5.29825093  -3.00382431
 H  -0.55415663   5.59627856  -1.28360804
 O   1.35205365   3.75687255  -1.23243091
 O  -2.26272256   5.49173207  -2.49343110
 H  -2.27599596   6.44996772  -2.55633985
 N   0.63010606   1.76652336  -2.02479924
 H  -0.16134663   1.16486147  -2.22503031
 C   1.89366015   1.12292102  -1.73345952
 H   2.67015441   1.87990071  -1.86874084
 C   2.08147444  -0.01372048  -2.73478816
 C   1.98800645   0.63858662  -0.25907841
 H   1.77952087   1.54459622   0.32597156
 O   1.14776700  -0.68335343  -3.13999500
 C   0.93425548  -0.41378996   0.08137226
 H   1.08413282  -1.30090673  -0.53928126
 H   1.00216657  -0.71279892   1.13063156
 H  -0.07116502  -0.03693637  -0.11557529
 C   3.39533474   0.16531683   0.09781863
 H   3.62375178  -0.79080223  -0.37565696
 H   3.48411072   0.03537492   1.17781711
 H   4.14920600   0.89549017  -0.20704537
 N   3.36807754  -0.22360868  -3.13906318
 H   4.09931274   0.20345034  -2.59539155
 C   3.72524010  -1.46670162  -3.80553876
 H   2.89743529  -1.71098739  -4.47116085
 C   3.88580552  -2.58001143  -2.75763062
 C   5.03472772  -1.31050000  -4.56357762
 H   5.25659241  -2.22947331  -5.11212170
 H   5.84620937  -1.13234136  -3.85664850
 H   4.97471928  -0.47994264  -5.26771161
 O   4.62418320  -2.41693028  -1.77378148
 N   3.19051671  -3.71842097  -3.00892754
 H   2.91841604  -3.96820647  -3.95605304
 C   3.37853559  -4.90549853  -2.22064257
 H   4.36402148  -4.88811215  -1.73271830
 C   3.30707821  -6.08708065  -3.23236849
 C   2.29285353  -5.11843495  -1.16725254
 H   1.31329139  -5.01413234  -1.64458454
 H   2.37337753  -6.14996544  -0.81207217
 O   3.56824647  -7.21012011  -2.79703872
 C   2.40236912  -4.15747316   0.00743508
 H   3.32661628  -4.36355277   0.55555873
 H   2.48156961  -3.13164850  -0.35692116
 C   1.21714016  -4.28605532   0.94596259
 H   1.11591124  -5.32898942   1.26949693
 H   0.30348853  -4.02080689   0.40524098
 N   1.38090307  -3.37776888   2.10629695
 H   2.33745974  -3.29078836   2.41660302
 N  -0.67932592  -4.03674021   3.00340678
 H  -1.42099316  -3.81289861   3.64738044
 H  -0.97060628  -4.29433349   2.07482592
 N   0.85988005  -2.82756211   4.30186498
 H   0.12309856  -2.63868942   4.96495693
 H   1.57968939  -2.11844297   4.26374824
 C   0.50328789  -3.40564527   3.12992656
 O   2.98739872  -5.75645652  -4.39776830
