21
conf-962
 N  -9.16925330   5.25022477   2.29014287
 H  -8.97571082   5.09432553   3.28692360
 H  -10.17792353   5.31150358   2.15695346
 H  -8.73123141   6.13513221   2.01589625
 C  -8.57470368   4.16261309   1.49239511
 H  -8.86136351   3.20249200   1.93698305
 C  -7.05924332   4.30367283   1.58788812
 C  -9.02638740   4.22111399   0.04436126
 H  -8.58429030   3.40810266  -0.53467553
 H  -10.11473836   4.14187117  -0.01695752
 H  -8.72414128   5.17074257  -0.40170785
 O  -6.52069043   5.40019528   1.62563713
 N  -6.36155759   3.14023909   1.60857024
 H  -6.78181341   2.25290455   1.38427610
 C  -4.94489489   3.10346169   1.87604517
 H  -4.53140962   4.06881337   1.58018020
 C  -4.36792660   1.94555062   1.05917941
 C  -4.63967457   2.86630638   3.37653929
 H  -3.56151390   2.96392500   3.52708287
 H  -4.92029916   1.84099114   3.63318791
 O  -5.05872462   1.00115046   0.71827240
 C  -5.36489147   3.83668220   4.26418152
 C  -4.89015594   5.03249347   4.72579760
 H  -3.91799854   5.48225613   4.59013324
 C  -6.72759588   3.73461868   4.72934325
 C  -7.02156902   4.90521027   5.43880682
 C  -7.71853466   2.75700305   4.57756770
 H  -7.51810312   1.84481055   4.01664950
 N  -5.88414167   5.68581406   5.42746474
 H  -5.79141699   6.59172294   5.84653932
 C  -9.24136185   4.16727930   5.82633315
 H  -10.24269086   4.33619287   6.20600376
 C  -8.27583181   5.14686968   5.99410902
 H  -8.49628455   6.07948077   6.50119714
 C  -8.96479219   2.98628985   5.12949070
 H  -9.75607653   2.26033451   4.98334427
 N  -3.04289304   2.01348607   0.81437714
 H  -2.48093005   2.79730071   1.09989997
 C  -2.34729087   0.98354077   0.07531607
 H  -2.66481372   0.00645870   0.44563602
 C  -0.85053190   1.21421070   0.30555898
 C  -2.67917447   1.03891330  -1.40753652
 H  -3.76573467   0.97225782  -1.50978946
 H  -2.22387409   0.17556774  -1.91582397
 O  -0.42310851   2.22329765   0.83595777
 O  -2.17064147   2.27053234  -1.90274058
 H  -2.47748246   2.39210720  -2.80480851
 N  -0.05554793   0.20669491  -0.13260295
 H  -0.42473652  -0.47845313  -0.77547922
 C   1.38105229   0.36028334  -0.22347467
 H   1.60774952   1.43159621  -0.21878047
 C   1.80331111  -0.26778167  -1.55046711
 C   2.15135722  -0.26951627   0.96005867
 H   3.20740564  -0.05828637   0.75258217
 O   1.07106839  -1.03595758  -2.16077381
 C   1.78571213   0.40378900   2.27997470
 H   0.76985835   0.13768181   2.57147676
 H   2.45885610   0.06481525   3.06887678
 H   1.84535397   1.49093565   2.20725473
 C   1.97336275  -1.78098137   1.05750336
 H   0.93754124  -2.01558574   1.30690171
 H   2.61595703  -2.18125335   1.84834002
 H   2.21832934  -2.28752755   0.12723676
 N   3.04532366   0.05456630  -1.97654127
 H   3.64992061   0.57810479  -1.36985532
 C   3.66862087  -0.64554877  -3.08937653
 H   2.83809411  -0.96653685  -3.72401896
 C   4.39588664  -1.89109059  -2.55779121
 C   4.61798498   0.27151920  -3.83391386
 H   5.06901346  -0.25820523  -4.67467726
 H   5.42007357   0.60792149  -3.17484452
 H   4.07138636   1.13882556  -4.20801587
 O   5.61296765  -2.01179790  -2.59270687
 N   3.59318137  -2.82269696  -1.97693053
 H   2.59406104  -2.89153190  -2.17429468
 C   4.09593904  -4.10567374  -1.58497397
 H   4.98690823  -4.36436937  -2.17197987
 C   2.94487698  -5.11593696  -1.85928003
 C   4.43321685  -4.23028724  -0.09870750
 H   3.53966339  -4.01058175   0.49896975
 H   4.67393527  -5.28229110   0.07747517
 O   3.20900196  -6.31364738  -1.75610188
 C   5.58084686  -3.33953880   0.35012662
 H   6.46554474  -3.54827201  -0.24898146
 H   5.33142840  -2.29568493   0.17641032
 C   5.89864480  -3.53976487   1.82322197
 H   6.10057089  -4.59559080   2.02860845
 H   5.02720134  -3.26231740   2.42085922
 N   7.01407018  -2.71927168   2.32676658
 H   6.79305902  -1.74592438   2.48352890
 N   8.63037781  -4.03899215   1.27356314
 H   9.58564583  -4.35893357   1.26813519
 H   7.92750303  -4.74461526   1.12807953
 N   9.22549580  -2.03557711   2.34458984
 H   10.19528179  -2.30574472   2.27017313
 H   9.00949896  -1.44407406   3.13621027
 C   8.29231181  -2.95355208   1.99260469
 O   1.85040365  -4.57940950  -2.15685287
