21
conf-95
 N  -7.30593711   2.43752326   4.60030919
 H  -7.26081348   1.91291992   5.47569546
 H  -8.27302255   2.53027274   4.30327727
 H  -6.90895059   3.36220208   4.78362276
 C  -6.45679133   1.81760425   3.56294816
 H  -6.48630547   0.72768611   3.66329468
 C  -5.02240369   2.28918205   3.80657589
 C  -6.91937559   2.22386293   2.17172766
 H  -6.29089333   1.77716916   1.40064073
 H  -7.95059874   1.90315895   2.00188308
 H  -6.87426912   3.31109783   2.06211998
 O  -4.78690303   3.28894851   4.46834706
 N  -4.04931090   1.54532104   3.21969035
 H  -4.26120106   0.82401444   2.54687595
 C  -2.65327098   1.89236999   3.33745010
 H  -2.60212706   2.93978992   3.63455531
 C  -2.00936858   1.64266156   1.97743583
 C  -1.94341330   1.03416052   4.40386036
 H  -0.90281018   1.36163731   4.47983894
 H  -1.93956084  -0.00937162   4.06731968
 O  -2.45096516   0.77996206   1.22144099
 C  -2.60037178   1.13142106   5.74960061
 C  -2.28439801   2.00787411   6.75098303
 H  -1.51269694   2.76282577   6.78088175
 C  -3.71376263   0.34792770   6.22997081
 C  -4.02655843   0.81235659   7.51955785
 C  -4.45170307  -0.71589599   5.68361434
 H  -4.22423916  -1.10711138   4.69335882
 N  -3.14413981   1.82840254   7.81411821
 H  -3.11617733   2.34381350   8.67302067
 C  -5.78143484  -0.77190981   7.71607343
 H  -6.59194309  -1.22279699   8.27563310
 C  -5.06436436   0.27348039   8.27952956
 H  -5.29454826   0.65280764   9.26824098
 C  -5.47791271  -1.26336360   6.43653965
 H  -6.05368981  -2.08860857   6.03737327
 N  -0.91071104   2.35778437   1.69572212
 H  -0.54202229   3.02844655   2.35173363
 C  -0.23501709   2.25789416   0.41237251
 H  -1.00974892   2.03640913  -0.32716997
 C   0.77341706   1.10019716   0.38411734
 C   0.41372874   3.59137357   0.10687459
 H  -0.37687157   4.30239621  -0.15817313
 H   1.10446564   3.48142046  -0.73229266
 O   1.95314131   1.24709866   0.06455592
 O   1.08981006   4.01857145   1.28883872
 H   1.76129927   4.66247700   1.04528230
 N   0.27383696  -0.10475445   0.72275506
 H  -0.72872038  -0.21126890   0.83230511
 C   1.11927960  -1.28657014   0.69243714
 H   2.12042048  -0.95083249   0.98232602
 C   1.15123827  -1.80941652  -0.75189381
 C   0.64365376  -2.35071025   1.68692154
 H  -0.32284498  -2.70941413   1.32851181
 O   0.45781790  -2.74153912  -1.14256023
 C   1.62737335  -3.52235782   1.74272899
 H   2.60720890  -3.16417084   2.06809587
 H   1.28301041  -4.27223462   2.45839122
 H   1.73820585  -4.00010655   0.76947933
 C   0.47595932  -1.75644858   3.08269466
 H   1.44461985  -1.42484264   3.46504807
 H   0.07944847  -2.50829657   3.76763550
 H  -0.20369383  -0.90299768   3.08595321
 N   1.98334189  -1.14137039  -1.58253913
 H   2.43571049  -0.28019650  -1.29220640
 C   2.10383019  -1.53177181  -2.96765698
 H   2.07615831  -2.62212453  -3.01263813
 C   3.45505351  -1.01871155  -3.46792516
 C   0.95989133  -0.97564304  -3.81729527
 H   1.07632452  -1.27849542  -4.85939447
 H   0.95402085   0.11590074  -3.76931660
 H   0.00887436  -1.35165458  -3.44478869
 O   3.94408532   0.01189495  -3.04165862
 N   4.03528922  -1.75892321  -4.43926451
 H   3.56031406  -2.48076373  -4.96862001
 C   5.21558900  -1.29950611  -5.12406014
 H   5.10517609  -0.23438740  -5.37828758
 C   5.27512598  -2.14136109  -6.43266046
 C   6.48820635  -1.47425877  -4.28550640
 H   6.23683709  -1.17828411  -3.26832013
 H   6.75864008  -2.53374946  -4.25368469
 O   6.22922379  -1.93313178  -7.19233110
 C   7.64916496  -0.63439294  -4.80484172
 H   7.84112515  -0.87023416  -5.85392039
 H   7.36826463   0.42240919  -4.76731094
 C   8.91253345  -0.84213738  -3.99503112
 H   9.75626471  -0.31425075  -4.45409543
 H   9.15782988  -1.90627702  -3.97918529
 N   8.69991136  -0.37329520  -2.60815702
 H   8.15342261   0.47247212  -2.53577749
 N   10.66947303  -1.35379495  -1.82563317
 H   11.47335571  -1.23216499  -1.22929170
 H   10.88088311  -1.62381506  -2.77388125
 N   9.47887401   0.15676379  -0.48099703
 H   9.95950849  -0.24289496   0.31291091
 H   8.53612466   0.45564815  -0.26296512
 C   9.62482882  -0.51925451  -1.65051245
 O   4.33124945  -2.94279236  -6.59527211
