21
conf-234
 N  -6.39489811   1.13502234   3.24252404
 H  -6.86138266   1.39174695   2.37779667
 H  -6.52281644   0.12929974   3.33023413
 C  -4.97146838   1.39966725   3.10175600
 H  -4.84692119   2.46717174   2.87093685
 C  -4.36613027   0.59309325   1.95381426
 C  -4.24179208   1.08926189   4.40864380
 H  -4.38597289   0.03402763   4.64737879
 H  -3.16681361   1.26100395   4.30094541
 O  -4.77848356  -0.51511597   1.65641009
 C  -4.74552070   1.93053446   5.58274907
 H  -5.80160173   1.73338920   5.77102507
 H  -4.59533535   2.99340798   5.38882896
 C  -3.89461897   1.49395886   6.79285032
 O  -2.84625411   2.14020688   6.97106100
 O  -4.33065750   0.52545399   7.44071726
 N  -3.34197363   1.19653282   1.29544148
 H  -2.84817419   1.98438815   1.68269268
 C  -2.71467632   0.59184910   0.14695927
 H  -2.86282770  -0.48901113   0.20920323
 C  -1.22934092   0.95605096   0.19777256
 C  -3.32124381   1.10212826  -1.17781360
 H  -2.81314035   0.60130432  -2.00602881
 H  -3.12380306   2.17362293  -1.26822637
 O  -0.81149279   1.87092123   0.88506262
 C  -4.79480809   0.82911081  -1.26566219
 C  -5.37715359  -0.22552600  -1.91392113
 H  -4.91825158  -1.01524507  -2.48889616
 C  -5.86953743   1.57749167  -0.65879778
 C  -7.06755532   0.90974155  -0.96000430
 C  -5.91985404   2.75107861   0.10424368
 H  -5.00476191   3.27276513   0.37854502
 N  -6.74374947  -0.18613615  -1.73030784
 H  -7.39680768  -0.85156717  -2.09811200
 C  -8.33096723   2.51788997   0.24300818
 H  -9.27130659   2.88671931   0.63626019
 C  -8.31118445   1.35271321  -0.50586811
 H  -9.21955606   0.80867132  -0.73592799
 C  -7.15144921   3.21430300   0.53704002
 H  -7.19931899   4.10216875   1.16101428
 N  -0.43355774   0.23012316  -0.62066116
 H  -0.80188059  -0.53422372  -1.16553269
 C   0.99361885   0.45619807  -0.67539542
 H   1.15842516   1.53690302  -0.70009393
 C   1.50969089  -0.20141566  -1.94543046
 C   1.72589624  -0.06252984   0.59934354
 H   1.45656207   0.62226780   1.40053872
 O   1.11396533  -1.29575103  -2.31373837
 C   1.39755836  -1.48875696   0.98230392
 H   0.34177501  -1.57656606   1.24085704
 H   1.98653666  -1.78646085   1.85007759
 H   1.60427391  -2.16877624   0.15400815
 O   3.20175796   0.02182074   0.43378043
 H   3.53754787  -0.59995128  -0.28284249
 N   2.48618850   0.46813194  -2.61344090
 H   2.86042589   1.30902482  -2.20885015
 C   3.33557377  -0.25512723  -3.54976740
 H   2.68591681  -0.77218108  -4.25923165
 C   4.12548507  -1.31787584  -2.81847419
 C   4.22372440   0.74736325  -4.30208630
 H   4.91037328   1.21390964  -3.59062004
 H   3.55346381   1.53074952  -4.65738879
 O   4.30953110  -1.33771528  -1.61639071
 C   4.97650083   0.15943398  -5.48291248
 H   5.69420631  -0.59632191  -5.15783777
 H   4.26449704  -0.33855022  -6.13944991
 C   5.73068298   1.21088238  -6.28776695
 H   6.49354912   1.68354364  -5.66607858
 H   6.26355143   0.74439637  -7.12216447
 N   4.90141893   2.31485870  -6.80783035
 H   4.74820599   3.07607663  -6.16289582
 N   3.81488395   0.95484567  -8.35699159
 H   3.26165220   0.90449054  -9.19713145
 H   4.59700158   0.32239517  -8.31502230
 N   3.03586151   3.12750436  -7.93453158
 H   3.30468711   4.06444701  -7.66543158
 H   2.47789216   3.07411943  -8.77390835
 C   3.93215226   2.13354762  -7.71382722
 O   4.62489780  -2.25354889  -3.63263199
 H   5.13400726  -2.86897987  -3.09061839
 H   3.52760031   0.91698459   0.21410301
