21
conf-231
 N  -4.53272110  -0.61856268   3.45913165
 H  -5.02030159  -0.66505162   4.34498657
 H  -5.18836286  -0.22091907   2.79669929
 C  -3.35637957   0.24242506   3.60181846
 H  -3.61197005   1.25654886   3.95016566
 C  -2.69395501   0.37725227   2.23354451
 C  -2.38002446  -0.38469896   4.58049174
 H  -2.11897298  -1.38702383   4.23468637
 H  -1.45782913   0.20967923   4.61183013
 O  -2.06934515  -0.57440133   1.73169405
 C  -2.91397870  -0.47790194   6.00884562
 H  -3.75806565  -1.17125499   6.06567978
 H  -3.20817695   0.50375439   6.38197805
 C  -1.73810252  -1.02621366   6.83383707
 O  -1.62962029  -2.26583071   6.85879168
 O  -0.99929060  -0.17456108   7.36317608
 N  -2.87232275   1.54748580   1.59477792
 H  -3.25717276   2.33198889   2.09112129
 C  -2.32279744   1.80632844   0.26808367
 H  -2.53532300   0.92523000  -0.34238226
 C  -0.81188220   1.94931360   0.36325451
 C  -2.95966762   3.04491972  -0.33938761
 H  -2.34207613   3.40786290  -1.16362628
 H  -2.93485148   3.84721889   0.40062610
 O  -0.23470932   3.02875448   0.52524261
 C  -4.34968271   2.78447467  -0.84003728
 C  -5.17843853   1.72317736  -0.56612980
 H  -4.99611205   0.85318100   0.03734095
 C  -5.08785955   3.65418148  -1.71940987
 C  -6.34944416   3.08202809  -1.92302788
 C  -4.77923455   4.87811342  -2.33236749
 H  -3.81605903   5.36045413  -2.17267460
 N  -6.38849269   1.91060947  -1.19835301
 H  -7.17221075   1.28486307  -1.14824631
 C  -6.98798500   4.87604340  -3.34281946
 H  -7.71345779   5.36928211  -3.97753565
 C  -7.32217878   3.67268814  -2.73320413
 H  -8.29520833   3.21499804  -2.87421108
 C  -5.73492358   5.47212476  -3.14242680
 H  -5.51120551   6.41548709  -3.62630436
 N  -0.13753919   0.78684759   0.27198368
 H  -0.67317659  -0.06379957   0.25887508
 C   1.25654841   0.69994216   0.65058110
 H   1.45035339   1.52754152   1.33812930
 C   2.06087179   0.89498744  -0.63206345
 C   1.51557139  -0.62517501   1.36446563
 H   1.27433570  -1.44690977   0.68948951
 O   2.58014612  -0.02624808  -1.24566501
 C   2.91944337  -0.74835514   1.90984709
 H   3.64057553  -0.75501701   1.09453648
 H   3.01663452  -1.67114150   2.48097816
 H   3.14424948   0.09606291   2.56387007
 O   0.57453792  -0.74378867   2.51742062
 H   0.69340393   0.04700644   3.08818075
 N   2.10161646   2.18440139  -1.06530072
 H   1.55836753   2.88177044  -0.57372621
 C   2.52777543   2.46747983  -2.41416712
 H   3.18045889   1.64649457  -2.71501370
 C   3.33403568   3.74324827  -2.52015183
 C   1.35463986   2.53887438  -3.41122384
 H   0.80075839   1.59773350  -3.34228865
 H   1.78450873   2.58643613  -4.41479198
 O   3.86098086   4.10801429  -3.54010124
 C   0.44972797   3.73822273  -3.18402008
 H   0.08188976   3.75191016  -2.15653836
 H   1.04739652   4.64726595  -3.31156008
 C  -0.74090944   3.80365348  -4.12409682
 H  -1.16239477   4.81238910  -4.08870049
 H  -0.43891189   3.60668053  -5.15632666
 N  -1.78435502   2.84096267  -3.69681789
 H  -1.45961264   1.97998300  -3.27308202
 N  -3.26295061   3.53592157  -5.37282727
 H  -4.21739463   3.57687988  -5.70182612
 H  -2.71025888   4.36776311  -5.50465316
 N  -3.77603185   1.70503517  -3.98135603
 H  -3.70036117   1.37010802  -3.02515195
 H  -4.72459335   1.73509828  -4.33446115
 C  -2.95141516   2.71637735  -4.35056898
 O   3.37940736   4.45494601  -1.37657807
 H   3.91236240   5.23884313  -1.56142667
 H  -0.39880438  -0.80381324   2.25049136
