21
conf-308
 N  -5.32867943   3.77381000   2.00070112
 H  -5.72291597   3.60184250   1.08732858
 H  -5.76951419   3.10759257   2.62607049
 C  -3.89803406   3.53226653   1.97692700
 H  -3.41878702   4.33969029   1.40856809
 C  -3.53243263   2.19736747   1.30812846
 C  -3.33087932   3.56567950   3.40007659
 H  -3.79199791   2.75880554   3.97905604
 H  -2.25275986   3.38033842   3.37176714
 O  -4.32383906   1.27035735   1.20987336
 C  -3.61337946   4.87925514   4.11373644
 H  -3.38506645   5.74685292   3.49752326
 H  -3.03078047   4.94458553   5.03574820
 C  -5.09645409   4.94274660   4.55225668
 O  -5.65754132   6.04590543   4.40341790
 O  -5.55473960   3.90595725   5.07418966
 N  -2.25448804   2.10555599   0.87050278
 H  -1.59051931   2.85724482   0.97265260
 C  -1.75802270   0.89246698   0.25413921
 H  -2.12144178   0.03899695   0.82970308
 C  -0.23581860   0.97519558   0.33606603
 C  -2.27250849   0.75511429  -1.19188395
 H  -2.03019072   1.67712557  -1.72414983
 H  -3.35915891   0.70633554  -1.13397885
 O   0.33935961   2.04387396   0.51492142
 C  -1.70734007  -0.39669927  -1.97639687
 C  -1.84414400  -1.74084438  -1.76790859
 H  -2.37649817  -2.27481333  -0.99399442
 C  -0.88144708  -0.25298156  -3.14808302
 C  -0.56280566  -1.53892226  -3.61006856
 C  -0.42414850   0.87195553  -3.84306392
 H  -0.64214469   1.86799348  -3.47822870
 N  -1.15957262  -2.43339830  -2.75054668
 H  -1.11308157  -3.43122538  -2.82665151
 C   0.67145567  -0.61905561  -5.42038919
 H   1.28332024  -0.73168594  -6.30602521
 C   0.22070022  -1.75040645  -4.74836158
 H   0.46620607  -2.74879459  -5.09030622
 C   0.33950887   0.67391486  -4.97743900
 H   0.72250022   1.53018677  -5.52581604
 N   0.42986186  -0.20000598   0.21826199
 H  -0.04804077  -0.96794568  -0.22617297
 C   1.88554165  -0.24203268   0.18816549
 H   2.22643126   0.45204066   0.95742327
 C   2.37824431   0.21034383  -1.18436211
 C   2.36097034  -1.65679618   0.53714661
 H   1.94057463  -2.34697987  -0.19634876
 O   2.67001444  -0.57375417  -2.08261090
 C   3.86347804  -1.79576443   0.63766180
 H   4.34414909  -1.55264672  -0.30721990
 H   4.11944759  -2.82189087   0.90346819
 H   4.24486110  -1.12448116   1.40839299
 O   1.79101917  -2.06195626   1.85102445
 H   2.35359394  -1.69852271   2.56757668
 N   2.46870907   1.55331467  -1.35625312
 H   2.01458279   2.15721835  -0.68532895
 C   2.83403803   2.07282686  -2.65316685
 H   2.22232542   1.57249417  -3.41557710
 C   4.26316904   1.73720275  -3.02942141
 C   2.61077343   3.58105124  -2.72541788
 H   3.11282184   3.96146364  -3.61588384
 H   3.10262124   4.03101339  -1.86350144
 O   4.61432448   1.50708387  -4.16076319
 C   1.13421815   3.93608612  -2.77035998
 H   0.71968426   3.57819076  -3.71408966
 H   0.59323911   3.42720151  -1.96588049
 C   0.86010576   5.42937076  -2.66376941
 H  -0.21406412   5.62854659  -2.72104331
 H   1.18609833   5.80116612  -1.69040723
 N   1.55922001   6.26169880  -3.66324547
 H   2.51656714   6.48316940  -3.43041771
 N   0.23875380   5.49358386  -5.42722782
 H  -0.10160399   5.68228225  -6.35663591
 H  -0.47327955   5.26511498  -4.75303031
 N   2.15816584   6.77850956  -5.84829657
 H   2.75779813   7.50998037  -5.49028110
 H   1.83737411   6.91926677  -6.79474288
 C   1.30272464   6.19177954  -4.97543471
 O   5.11971807   1.77633495  -1.98826970
 H   5.99165659   1.57679230  -2.35135366
 H   0.87423834  -1.71354376   1.96534381
