21
conf-549
 N  -4.96716258   1.99256403   3.09637387
 H  -5.68373358   1.29393319   2.93655201
 H  -5.31355981   2.64135296   3.79356277
 C  -3.76000176   1.35431577   3.61521051
 H  -3.14797810   2.12989190   4.08461819
 C  -2.90120333   0.78872496   2.47763840
 C  -4.00962060   0.25916932   4.66591229
 H  -4.47598819  -0.61546987   4.20322515
 H  -3.02980990  -0.04528946   5.04614766
 O  -1.92427284   0.07640308   2.68649928
 C  -4.86803129   0.78020641   5.81561047
 H  -4.79365132   0.13198981   6.69005076
 H  -5.91580008   0.87478398   5.52338962
 C  -4.26823446   2.15652132   6.14740671
 O  -4.91585480   3.14865563   5.74799777
 O  -3.18036470   2.14695597   6.73497621
 N  -3.29948466   1.15123473   1.24608963
 H  -4.04897395   1.82369753   1.20620537
 C  -2.56363287   0.73879960   0.07359957
 H  -2.56546706  -0.35270617   0.03679771
 C  -1.11698443   1.20446340   0.17230761
 C  -3.19580189   1.29924662  -1.21606368
 H  -3.21964582   2.38714966  -1.14458114
 H  -4.21687518   0.92649082  -1.29525141
 O  -0.80045493   2.33856695   0.47600146
 C  -2.37322750   0.90542880  -2.41135019
 C  -1.60224595   1.73613770  -3.17303521
 H  -1.51370222   2.81153308  -3.14395430
 C  -2.08047720  -0.43572890  -2.84229403
 C  -1.11757027  -0.34792859  -3.85712824
 C  -2.51659867  -1.69204194  -2.39837542
 H  -3.24974868  -1.76328394  -1.60027241
 N  -0.85327330   0.98702281  -4.05949905
 H  -0.14979592   1.34155831  -4.68188116
 C  -1.02478097  -2.72113566  -4.01500390
 H  -0.62632024  -3.62178381  -4.46322835
 C  -0.58597651  -1.48076008  -4.46888598
 H   0.14949078  -1.39614545  -5.26217032
 C  -1.98257891  -2.82486349  -2.99413434
 H  -2.30682137  -3.80453944  -2.66818358
 N  -0.20378074   0.24341158  -0.15737180
 H  -0.51919620  -0.59604122  -0.62106918
 C   1.21190871   0.56254958  -0.25444164
 H   1.30276786   1.62614852  -0.44910812
 C   1.79047576  -0.27991831  -1.37253287
 C   1.94581891   0.20210526   1.04657562
 H   3.02061375   0.31518515   0.88990668
 O   1.76221920  -1.52266545  -1.29801767
 C   1.47529745   0.99880924   2.24237555
 H   1.54629271   2.07005358   2.04682757
 H   2.07887292   0.75448426   3.11633295
 H   0.44240206   0.75458914   2.46132197
 O   1.70545461  -1.23734257   1.30936865
 H   0.76086716  -1.29186412   1.58938186
 N   2.28219424   0.35420714  -2.44325281
 H   2.45721214   1.34352215  -2.39666057
 C   2.98319731  -0.39569913  -3.47721251
 H   2.37944570  -1.27945489  -3.70255646
 C   4.34038115  -0.89704530  -3.02390352
 C   3.13755882   0.48206413  -4.72064350
 H   3.63699747   1.40813222  -4.42359370
 H   2.12822807   0.75719832  -5.05186613
 O   4.87818950  -1.86800642  -3.50422108
 C   3.89622893  -0.14785501  -5.88549574
 H   3.90781801   0.56414695  -6.71331480
 H   4.93755707  -0.32320405  -5.61582454
 C   3.29377534  -1.45989103  -6.36943406
 H   3.27918015  -2.19006097  -5.56259499
 H   2.26071132  -1.30322356  -6.68439273
 N   3.98651813  -2.03480194  -7.53817957
 H   3.78105919  -1.59190775  -8.42184658
 N   5.73709046  -2.94434946  -6.28814104
 H   6.71193805  -3.19962209  -6.25409927
 H   5.36878969  -2.55236957  -5.43213223
 N   5.82708209  -2.93164904  -8.62972002
 H   5.23118375  -3.02660687  -9.44406944
 H   6.52933178  -3.65707127  -8.56604195
 C   5.18271849  -2.63469824  -7.46566503
 O   4.92526507  -0.12579873  -2.09165898
 H   5.79050454  -0.51705046  -1.91569487
 H   1.73498675  -1.62187648   0.37221126
