80
82
N         -1.75968        9.96996       -4.85293
C         -1.05610       11.23296       -5.14902
C         -2.03828       12.36582       -4.78525
O         -3.10248       12.11511       -4.23212
C         -0.62623       11.30251       -6.62168
C          0.32373       10.23332       -7.12329
C          1.13018        9.44887       -6.29078
C          0.45490       10.07564       -8.51256
C          2.04642        8.53788       -6.82693
C          1.38472        9.19078       -9.05224
C          2.18601        8.41240       -8.20937
H         -2.10808       10.00219       -3.89511
H         -0.17063       11.34887       -4.50371
H         -0.13510       12.27123       -6.78490
H         -1.52074       11.31457       -7.24842
H          1.07764        9.56104       -5.21102
H         -0.17009       10.67464       -9.17001
H          2.66849        7.94788       -6.16015
H          1.48698        9.10800      -10.13100
H          2.92618        7.73439       -8.62556
H         -1.12719        9.17907       -4.95012
N         -1.67011       13.63368       -5.11199
C         -2.53014       14.77223       -4.77255
C         -3.92157       14.61512       -5.41635
O         -4.93122       15.01031       -4.85415
C         -1.88359       16.10389       -5.18569
C         -0.80849       16.65914       -4.23229
C          0.40159       15.73163       -4.05514
C         -0.35750       18.04159       -4.72063
H         -0.74782       13.81747       -5.47828
H         -2.72801       14.77017       -3.69586
H         -1.47442       16.00662       -6.20279
H         -2.69136       16.84101       -5.25069
H         -1.28273       16.78243       -3.24819
H          0.87824       15.51641       -5.02287
H          1.15989       16.20624       -3.42362
H          0.13003       14.78267       -3.58140
H          0.35997       18.48870       -4.02451
H          0.12988       17.97033       -5.70148
H         -1.20615       18.72763       -4.81726
N         -3.93034       14.04504       -6.65839
C         -5.10708       13.30904       -7.08329
C         -4.57842       12.08041       -7.84020
O         -3.37823       11.97606       -8.13160
C         -6.10223       14.18947       -7.86554
C         -7.52982       13.65640       -7.81169
N         -8.50023       14.57993       -8.00449
O         -7.80070       12.46637       -7.62897
H         -3.06865       13.62667       -6.99270
H         -5.62350       12.94241       -6.18841
H         -6.06497       15.18503       -7.41458
H         -5.79728       14.29595       -8.91427
H         -9.46407       14.28268       -7.93044
H         -8.30471       15.56984       -8.00948
N         -5.45482       11.08932       -8.07608
C         -4.96001        9.75707       -8.38841
C         -3.77939        9.43827       -7.44040
O         -2.73495        8.88971       -7.81812
C         -4.61216        9.57831       -9.87969
C         -4.56974        8.10238      -10.35973
C         -3.28648        7.72522      -11.11486
N         -2.15624        7.83718      -10.18559
C         -1.27026        6.90087       -9.87956
N         -0.85792        5.98947      -10.77996
N         -0.76691        6.85456       -8.62841
O         -3.99855        9.77918       -6.20801
H         -3.09479        9.78274       -5.66539
H         -6.42921       11.25880       -7.80992
H         -5.76623        9.06314       -8.12113
H         -3.66806       10.09921      -10.07047
H         -5.37303       10.12094      -10.44647
H         -4.67048        7.41728       -9.50902
H         -5.41981        7.90136      -11.01951
H         -3.34970        6.69808      -11.48920
H         -3.12857        8.39060      -11.97115
H         -2.33719        8.48515       -9.40129
H         -0.40384        5.14071      -10.47631
H         -1.12811        6.06152      -11.74911
H          0.21835        6.65105       -8.51023
H         -1.13823        7.54208       -7.97584
