21
conf-584
 N  -13.60780650   14.25602475   0.51656509
 H  -14.55791485   14.41511287   0.18572062
 H  -13.01149300   14.99777564   0.15376908
 H  -13.59584176   14.36744820   1.52891107
 C  -13.08224196   12.93492127   0.13433437
 H  -13.70272830   12.13669872   0.54261439
 H  -13.06993075   12.82004376  -0.94980875
 C  -11.66029234   12.76796409   0.66097016
 O  -11.08724950   13.63538725   1.30214147
 N  -11.07738928   11.58663428   0.36473814
 H  -11.53039707   10.85026627  -0.14998450
 C  -9.74008270   11.30782915   0.81544241
 H  -9.66741980   11.36489092   1.90545604
 H  -9.02854822   12.04436208   0.43169704
 C  -9.38034784   9.90439360   0.32749114
 O  -10.16549341   9.21214052  -0.29543328
 N  -8.13904009   9.48416754   0.63881819
 H  -7.46470276   10.04671245   1.12454739
 C  -7.69636164   8.18587264   0.21389170
 H  -8.31423592   7.39413210   0.64400295
 H  -7.77912838   8.07354457  -0.86992177
 C  -6.24477423   8.03408764   0.65855713
 O  -5.64472133   8.93514018   1.22920279
 N  -5.67594278   6.85050460   0.37879535
 H  -6.15710229   6.10381517  -0.09164363
 C  -4.31561180   6.59154314   0.76050186
 H  -3.62814424   7.28753466   0.27307661
 H  -4.17523434   6.73806541   1.83413919
 C  -3.99074322   5.15130146   0.36295594
 O  -4.78300339   4.44970081  -0.23940872
 N  -2.76512075   4.71962458   0.71731641
 H  -2.12029796   5.27774101   1.24795501
 C  -2.35973682   3.37637493   0.40724706
 H  -3.08066540   2.64991892   0.78955366
 H  -2.31558125   3.21180527  -0.67221896
 C  -0.98736041   3.14985462   1.03731919
 O  -0.39750996   4.02999975   1.65091908
 N  -0.46792777   1.91772295   0.87967539
 H  -0.91302194   1.19285197   0.34434229
 C   0.82026009   1.62189229   1.43650615
 H   1.59658569   2.23259496   0.97979012
 H   0.85266059   1.82659301   2.50911111
 C   1.15033416   0.17009195   1.15318402
 O   0.49439608  -0.50427797   0.36948522
 N   2.23446123  -0.29966360   1.80927368
 H   2.87103228   0.38230381   2.20133771
 C   2.77818897  -1.60288885   1.48171793
 H   3.32144720  -1.99532798   2.33988979
 H   1.92283980  -2.24091914   1.25058750
 C   3.75297795  -1.53031480   0.31061078
 O   4.96713735  -1.63303957   0.46416139
 N   3.19469947  -1.29626468  -0.89579314
 H   2.20719130  -1.07305731  -0.94096810
 C   4.03700255  -0.93343854  -2.01574905
 H   3.52057679  -1.15193656  -2.94815552
 H   4.93930491  -1.54108666  -1.93344528
 C   4.37282337   0.55795155  -2.01565519
 O   3.97185895   1.31789418  -2.88248660
 N   5.13016732   0.97405529  -0.96280435
 H   5.38428844   0.31458720  -0.23721126
 C   5.27982551   2.37678943  -0.69253568
 H   6.19643838   2.52506141  -0.11894362
 H   5.32972208   2.91389628  -1.63718264
 C   4.13298588   2.91955073   0.20086088
 O   3.90500610   2.40930198   1.32142859
 N   3.42179561   3.95233920  -0.35323092
 H   3.87836284   4.43207568  -1.11111132
 C   2.56974603   4.74860319   0.49054981
 H   1.70413747   5.10124639  -0.07043899
 H   2.22830223   4.09710594   1.29696669
 C   3.30339404   5.93012256   1.12227259
 O   4.51535846   6.02623388   1.13731663
 N   2.49553185   6.84500365   1.70507745
 H   1.49280962   6.77210645   1.70824915
 C   3.04879887   8.00677613   2.34766594
 H   3.63696970   8.60645555   1.64603087
 H   3.73784913   7.72671277   3.14869050
 C   1.87819867   8.81295120   2.90066251
 O   0.71489855   8.46371733   2.72923555
 N   2.20480044   9.92732399   3.58353631
 H   3.16655985   10.22021231   3.61981193
 C   1.18732158   10.74704540   4.21537228
 H   0.42128163   10.06200952   4.58786773
 H   1.61328911   11.29638488   5.05085639
 C   0.54777104   11.76918885   3.27795350
 O   0.61455504   12.96781560   3.48305339
 N  -0.10625350   11.23385613   2.21692739
 H  -0.18870363   10.23073009   2.12798413
 C  -0.78492491   12.08694593   1.28249180
 H  -0.52765326   11.83702529   0.25177490
 H  -0.44803696   13.10494820   1.48647167
 C  -2.31520597   12.07151301   1.35543956
 O  -2.99339301   12.41788790   0.40495077
 N  -2.84479619   11.68967056   2.53783661
 H  -2.26597384   11.42241141   3.31298860
 C  -4.27429262   11.69205802   2.72794958
 H  -4.75296449   10.95541627   2.08858628
 H  -4.71469858   12.65911163   2.48131791
 C  -4.57540279   11.35882495   4.16262118
 O  -3.74539614   11.06883472   4.98656401
 O  -5.89370003   11.41849853   4.42494106
 H  -5.99584632   11.18989756   5.35875515
