21
conf-156
 N   10.28532281   4.36374969  -10.72509588
 H   10.69831241   4.04504016  -11.59809418
 H   11.02208378   4.67549101  -10.09425167
 H   9.68172280   5.17302155  -10.89137412
 C   9.43891114   3.33991161  -10.08663969
 H   8.99399898   2.67174942  -10.82579238
 H   10.01162731   2.72461602  -9.39580207
 C   8.31310659   4.05293417  -9.33960582
 O   8.06788732   5.23620475  -9.51564672
 N   7.59382276   3.28137641  -8.50251173
 H   7.75675741   2.29816595  -8.36736393
 C   6.47860843   3.84047241  -7.78765615
 H   5.74454933   4.27070164  -8.47467100
 H   6.79488347   4.66245979  -7.13937971
 C   5.85262133   2.71350172  -6.96613510
 O   6.28348764   1.57455011  -6.99172577
 N   4.79167070   3.06682338  -6.21574344
 H   4.42601416   4.00207967  -6.17639833
 C   4.13142327   2.07969542  -5.40430206
 H   3.76685620   1.24878123  -6.01356417
 H   4.82502967   1.63763600  -4.68167626
 C   2.97707568   2.76756632  -4.68299579
 O   2.75832178   3.95657244  -4.80284048
 N   2.24455330   1.96069812  -3.88000384
 H   2.41868295   0.96707600  -3.82348779
 C   1.09597732   2.48041593  -3.18268456
 H   0.75573221   3.37767998  -3.70184780
 H   0.29124873   1.74486422  -3.18678081
 C   1.33016052   2.85641202  -1.71739274
 O   0.37096633   2.91919060  -0.94675288
 N   2.59511065   3.13413897  -1.34739429
 H   3.33243955   2.84373303  -1.96326405
 C   2.89881852   3.31049294   0.05965339
 H   3.87952170   3.77459683   0.15469250
 H   2.13090827   3.95167146   0.48940517
 C   2.96302565   1.95105591   0.77727163
 O   3.96406785   1.23705410   0.71733314
 N   1.82697712   1.59002590   1.44860441
 H   1.01288384   2.16656138   1.33301855
 C   1.64313855   0.19724328   1.75178563
 H   2.63520869  -0.22808458   1.92326222
 H   1.04674367   0.08220108   2.65761915
 C   0.98492773  -0.63903664   0.65571739
 O   1.11260853  -1.85273432   0.63846948
 N   0.21981279   0.00615668  -0.24822428
 H   0.12175971   1.01394623  -0.23880509
 C  -0.31753192  -0.72373125  -1.37399478
 H  -1.01902396  -1.48347378  -1.02947240
 H  -0.84113769  -0.00495215  -2.00448884
 C   0.81204891  -1.36404802  -2.17458186
 O   1.61452385  -0.66937661  -2.78773896
 N   0.90963841  -2.70406106  -2.11203281
 H   0.29711322  -3.22073786  -1.50771205
 C   2.07672492  -3.39967126  -2.60346060
 H   2.93836131  -2.72602809  -2.54924472
 H   1.97280399  -3.70472006  -3.64373788
 C   2.36649175  -4.66820450  -1.81006828
 O   2.94463358  -5.61556278  -2.32896922
 N   1.97986692  -4.66364207  -0.51238128
 H   1.82766384  -3.76651029  -0.05478256
 C   2.35226420  -5.78191776   0.33078256
 H   1.67155486  -5.84313672   1.18001650
 H   2.26638913  -6.67740370  -0.28623007
 C   3.76500850  -5.61193387   0.86989055
 O   3.99384681  -5.24706967   2.01116114
 N   4.76966372  -5.88694700  -0.00750261
 H   4.53101378  -5.98545262  -0.98993588
 C   6.06615569  -5.34114051   0.33870931
 H   6.50247636  -5.90990279   1.16254431
 H   6.72470681  -5.42169477  -0.52892977
 C   5.90026018  -3.87941033   0.74636211
 O   5.18670285  -3.10471047   0.11484295
 N   6.55829511  -3.50965621   1.87608855
 H   6.97042005  -4.23256684   2.43816873
 C   6.18280211  -2.26807320   2.53801035
 H   6.49747411  -2.30198651   3.57745768
 H   5.09227296  -2.18091751   2.48383071
 C   6.83632303  -1.04788011   1.89465548
 O   7.80468330  -0.49011200   2.40692815
 N   6.29636119  -0.61795545   0.73466937
 H   5.60197154  -1.19008001   0.26766021
 C   6.91606372   0.46035572   0.00417553
 H   6.16768694   0.93625847  -0.62635443
 H   7.27272081   1.17455436   0.74944479
 C   8.04475955  -0.01649714  -0.91012544
 O   7.98145558   0.06785358  -2.12546023
 N   9.10904407  -0.55905795  -0.28399841
 H   9.17854207  -0.63698886   0.72224863
 C   10.19771621  -1.06556214  -1.06894568
 H   10.66727862  -0.26941171  -1.65253818
 H   9.83549681  -1.79565175  -1.80015383
 C   11.21688268  -1.71061505  -0.14146879
 O   11.04657444  -1.76759025   1.06089472
 N   12.33176462  -2.18279890  -0.76428773
 H   12.28030049  -2.30544926  -1.76036720
 C   13.25208539  -3.00857255  -0.03001684
 H   13.08263563  -2.81862038   1.03104674
 H   14.28880760  -2.74495853  -0.24637880
 C   13.12212464  -4.49648952  -0.25624895
 O   13.85302264  -5.30884886   0.24291454
 O   12.09885497  -4.82234265  -1.07402426
 H   12.10131835  -5.78541545  -1.14088019
