21
conf-497
 N  -0.89298788  -0.99661665  -6.76986051
 H  -1.28074410  -1.46360758  -5.94717645
 H  -1.65170135  -0.52024560  -7.25079465
 H  -0.24977760  -0.28186693  -6.42205865
 C  -0.21338532  -1.96806876  -7.64438813
 H   0.62548732  -2.35460320  -7.06110512
 H  -0.86883797  -2.79398403  -7.91376623
 C   0.30094313  -1.41252374  -8.97177525
 O   0.49068566  -2.14116990  -9.93086173
 N   0.57399198  -0.09114250  -8.99526531
 H   0.26401331   0.49992297  -8.24272983
 C   1.08593261   0.55889650  -10.19059960
 H   0.34511256   0.56354538  -10.98876268
 H   1.96682093   0.01453538  -10.53906543
 C   1.41253375   2.00002294  -9.81861554
 O   0.96518102   2.95504742  -10.42380050
 N   2.24654056   2.10763001  -8.72863509
 H   2.39459324   1.23721824  -8.24741917
 C   2.04268848   3.23769605  -7.85682727
 H   2.96578359   3.48324127  -7.33204974
 H   1.76414105   4.08857497  -8.47972450
 C   0.93499500   2.95519279  -6.83720884
 O   0.29672497   1.90375130  -6.83008207
 N   0.72358479   3.92359965  -5.91513427
 H   1.16234427   4.81764484  -6.05388146
 C  -0.46181592   3.87657364  -5.07806344
 H  -0.59879763   4.85207366  -4.61065071
 H  -1.35964449   3.65742805  -5.65774783
 C  -0.41563679   2.82433129  -3.97416609
 O  -1.45401033   2.44565414  -3.43389948
 N   0.79526906   2.39547863  -3.58583672
 H   1.61141525   2.75109842  -4.05051842
 C   0.92395173   1.35504202  -2.58900662
 H   0.10206982   0.64955673  -2.74944112
 H   1.87138983   0.83374464  -2.72696378
 C   0.87978615   1.87547198  -1.15173244
 O   1.82151877   1.72195303  -0.37695093
 N  -0.27219231   2.46913875  -0.77521305
 H  -1.02010579   2.59365555  -1.45061927
 C  -0.34690706   3.13391918   0.51124964
 H   0.48389761   3.83088263   0.64014187
 H  -1.27388860   3.70782386   0.55201800
 C  -0.29064619   2.21383076   1.73137163
 O   0.10313951   2.62498381   2.80877661
 N  -0.73565848   0.94703489   1.53521594
 H  -0.93662066   0.66015040   0.59588065
 C  -0.53152114  -0.05218849   2.54611944
 H  -0.48679679   0.46755028   3.50644519
 H  -1.36574508  -0.75258541   2.57519915
 C   0.72834912  -0.91330175   2.42152402
 O   0.78064145  -2.00612994   2.95387435
 N   1.78141190  -0.37392359   1.75893977
 H   1.69039848   0.46544562   1.20141671
 C   2.95159263  -1.17740304   1.53629663
 H   3.50460163  -0.74780454   0.70732960
 H   2.68454331  -2.20299829   1.27505288
 C   3.92992795  -1.24286601   2.71041133
 O   4.83810318  -2.07860107   2.70628114
 N   3.80283385  -0.30824742   3.66481679
 H   3.04901962   0.35109292   3.59687407
 C   4.72458616  -0.24449995   4.78506262
 H   4.30961688   0.42849744   5.53342452
 H   4.82239190  -1.24475185   5.20735248
 C   6.09650978   0.27937099   4.35890213
 O   6.37582500   1.46792856   4.35791255
 N   6.95531493  -0.68590160   3.94103299
 H   6.56110610  -1.58915439   3.71794874
 C   8.20206885  -0.33529394   3.31270067
 H   8.44406055   0.67581819   3.64662749
 H   8.99211584  -1.01807263   3.62074860
 C   8.18095746  -0.37452510   1.78301808
 O   9.09813875  -0.84546239   1.13623965
 N   7.07961377   0.17670444   1.21331789
 H   6.37549165   0.59448300   1.79748866
 C   6.94652547   0.23541492  -0.21705898
 H   7.89719856   0.50463960  -0.67673233
 H   6.22459294   1.01363564  -0.47435491
 C   6.49194718  -1.05607194  -0.89925085
 O   6.61123015  -1.17678005  -2.11562506
 N   5.93203203  -2.00609211  -0.13312861
 H   5.80344795  -1.86457729   0.86335997
 C   5.46400036  -3.24332317  -0.72183568
 H   6.19118040  -3.53900018  -1.48153212
 H   5.41517536  -4.00009435   0.05994782
 C   4.07080539  -3.10580863  -1.33812565
 O   3.08424150  -3.61134424  -0.82246464
 N   4.02942762  -2.38842551  -2.48625091
 H   4.87020102  -1.93328552  -2.81995148
 C   2.79437704  -2.20108619  -3.20194382
 H   2.70273422  -1.16281396  -3.53136298
 H   1.97307570  -2.40112448  -2.51113713
 C   2.61805738  -3.09672491  -4.44132657
 O   1.83320344  -2.78075384  -5.35566586
 N   3.33619768  -4.24972184  -4.43522244
 H   4.10982736  -4.34047380  -3.79809821
 C   3.30391573  -5.04490085  -5.63462569
 H   2.26651774  -5.27202378  -5.86247045
 H   3.84247660  -5.98165115  -5.46893945
 C   3.87738235  -4.35843116  -6.85663935
 O   3.46502535  -4.51205578  -7.97869128
 O   4.94689971  -3.59299907  -6.55877255
 H   5.26342405  -3.21956797  -7.39045555
