21
conf-558
 N   3.42195881   0.86148462   7.16270774
 H   3.03831575  -0.07502752   7.05856525
 H   2.66979835   1.54572085   7.11717758
 H   3.85383516   0.96881304   8.08271870
 C   4.46489309   1.15982645   6.16966762
 H   5.01359712   0.25441229   5.94066332
 H   4.03701942   1.54334189   5.24450153
 C   5.42368946   2.17354650   6.77539445
 O   5.40110576   2.41544251   7.97317904
 N   6.30529865   2.73254773   5.92295148
 H   6.26127486   2.50767597   4.93428585
 C   7.26943512   3.70156647   6.39214659
 H   8.24056249   3.23039075   6.55561489
 H   6.92346473   4.10612060   7.34375843
 C   7.43120751   4.77792711   5.33036260
 O   7.68220560   4.47738602   4.16603969
 N   7.29988135   6.06234409   5.74737259
 H   6.87739137   6.22234138   6.64669078
 C   7.22013084   7.13130517   4.76469653
 H   7.51834157   8.06904115   5.22968864
 H   7.92220529   6.86694435   3.97399062
 C   5.79868267   7.29704660   4.23275662
 O   5.04938962   8.16556003   4.64215937
 N   5.43966322   6.39069757   3.28240223
 H   6.01485795   5.56265928   3.18614192
 C   4.05650802   6.25847575   2.93690997
 H   3.57403050   7.20828062   3.17005030
 H   3.95366096   6.06492573   1.86826256
 C   3.36356516   5.14692214   3.71679909
 O   3.75642325   4.74377803   4.80925660
 N   2.24605041   4.65455596   3.13560076
 H   1.92777730   4.94047329   2.22597813
 C   1.53054586   3.57433691   3.75007945
 H   2.20867504   2.73509141   3.95899955
 H   1.10055806   3.86908599   4.70768449
 C   0.43998657   3.12657197   2.78671828
 O   0.27514091   3.66885084   1.70934775
 N  -0.34289610   2.10428091   3.24338020
 H   0.05451028   1.54938947   3.98346624
 C  -1.14670066   1.37381118   2.29489468
 H  -2.08202160   1.04622168   2.75051468
 H  -1.39116454   2.05147099   1.47520411
 C  -0.41906268   0.15271555   1.75214649
 O   0.63641138  -0.25535708   2.21907230
 N  -1.04554353  -0.50582045   0.74048448
 H  -1.69703164   0.02193114   0.18442938
 C  -0.34008093  -1.58583728   0.07476591
 H  -0.07998739  -2.34218712   0.81620340
 H  -1.00917051  -2.03238533  -0.66169969
 C   0.91338446  -1.07003672  -0.62389332
 O   0.89974813  -0.06541043  -1.30518832
 N   2.04112052  -1.81424809  -0.42339796
 H   2.02584182  -2.53340447   0.27546905
 C   3.31946015  -1.29895255  -0.84020207
 H   3.21622144  -0.84524804  -1.82452954
 H   4.03174046  -2.12002125  -0.93261250
 C   3.96368356  -0.24117411   0.05934725
 O   4.91884390   0.40073515  -0.33508096
 N   3.46254452  -0.11198877   1.31666446
 H   2.55406155  -0.49277253   1.55652140
 C   3.96964660   0.94589974   2.15441022
 H   4.07861178   1.87291836   1.58761448
 H   3.24810185   1.12617381   2.94637114
 C   5.31339461   0.68729038   2.82725616
 O   5.92960772   1.63323564   3.29514843
 N   5.70304006  -0.59552774   2.92505616
 H   5.16033312  -1.27485345   2.42580785
 C   6.94878475  -0.96158035   3.56414232
 H   7.60609108  -1.45565068   2.84616684
 H   7.40635546  -0.03438883   3.90217348
 C   6.69072483  -1.86840065   4.76556168
 O   6.54567830  -1.43683380   5.89723997
 N   6.54097821  -3.18538541   4.45410634
 H   6.78884616  -3.51576412   3.53704156
 C   6.31608572  -4.14526582   5.50935863
 H   6.75595407  -3.76882534   6.43326770
 H   6.79522580  -5.09547626   5.27340981
 C   4.85277230  -4.46158003   5.82404355
 O   4.56911624  -5.29630814   6.66325061
 N   3.92016887  -3.77894515   5.11539236
 H   4.20443727  -3.09388948   4.43879424
 C   2.52206978  -4.09073237   5.27512579
 H   2.24739382  -4.10122147   6.33080326
 H   1.93883322  -3.31151196   4.77982306
 C   2.08617317  -5.45586236   4.71610241
 O   1.11002027  -6.03844343   5.15788725
 N   2.81635820  -5.93585098   3.69157561
 H   3.64519699  -5.48839050   3.34246421
 C   2.49220265  -7.20677668   3.10538571
 H   1.48876306  -7.19588892   2.66868408
 H   2.48524373  -8.00077566   3.85909556
 C   3.54350897  -7.49886385   2.03853943
 O   4.45042365  -6.71781486   1.81286935
 N   3.40197932  -8.69429725   1.40541201
 H   2.51566596  -9.15897307   1.49905526
 C   4.19489277  -8.97230777   0.23809281
 H   4.63635962  -9.96961419   0.27597701
 H   5.01543811  -8.25152940   0.23215137
 C   3.47320571  -8.86070447  -1.08356733
 O   3.97445398  -9.14089601  -2.13868685
 O   2.20802572  -8.40542033  -0.96018940
 H   1.84618566  -8.36124715  -1.85411535
