60
62
N          3.09110        2.83848        4.34338
H          3.52046        2.62406        5.26040
H          2.60927        1.97187        3.99783
H          3.90288        2.99890        3.70671
C          2.19622        4.03005        4.33637
H          2.77099        4.88779        4.69347
H          1.35408        3.84669        5.00255
C          1.63103        4.28599        2.93040
O          0.43603        4.09365        2.69874
N          2.49663        4.76794        2.00961
H          3.49737        4.61385        2.12580
C          2.01574        5.08258        0.67149
H          1.18341        5.78686        0.75002
H          2.82961        5.56664        0.12709
C          1.61775        3.80928       -0.07569
O          2.41362        2.87768       -0.20268
N          0.35020        3.74694       -0.54002
H         -0.29348        4.49392       -0.31856
C         -0.15655        2.50817       -1.11130
H          0.42072        2.22725       -1.99443
H         -1.19526        2.66062       -1.41488
C         -0.06991        1.32542       -0.13958
O          0.02336        0.17439       -0.56471
N         -0.10796        1.63113        1.17946
H         -0.08868        2.59810        1.49021
C          0.10497        0.60984        2.19012
H         -0.17580        1.02016        3.16009
H         -0.52626       -0.25636        1.97065
C          1.57249        0.17181        2.26698
O          2.32335        0.51330        3.20046
N          2.00592       -0.59731        1.25631
H          1.35191       -0.76227        0.48956
C          3.32697       -1.20344        1.26166
H          3.39496       -1.87046        0.39755
H          3.45700       -1.81178        2.16015
C          4.50714       -0.23523        1.19983
O          5.61888       -0.60077        1.61125
N          4.29241        0.97941        0.65948
H          3.36732        1.27651        0.36287
C          5.35308        1.97377        0.56064
H          6.23708        1.53647        0.08817
H          4.97543        2.79578       -0.04507
C          5.67070        2.49216        1.96190
O          5.01268        3.41629        2.48652
N          6.63709        1.83811        2.62275
H          6.97281        0.98984        2.17589
C          6.81656        1.99368        4.06100
H          7.81127        1.62949        4.33138
H          6.74651        3.04907        4.32113
C          5.74471        1.23952        4.87308
O          5.17084        1.78094        5.82631
N          5.49008       -0.01794        4.47344
H          5.84269       -0.35218        3.57974
C          4.48245       -0.84115        5.12929
H          4.62199       -0.77298        6.21289
H          3.47358       -0.51503        4.87176
C          4.62251       -2.28555        4.68314
O          3.72133       -2.94252        4.21134
O          5.87251       -2.74820        4.86711
H          5.88565       -3.67364        4.55464
