21
conf-961
 N  -6.38501752  -4.99565024  -5.77119642
 H  -6.89414632  -5.60714060  -5.13207787
 H  -6.61500511  -5.22071661  -6.74139921
 H  -6.62632688  -4.02070636  -5.57596836
 C  -4.92457957  -5.11681436  -5.59923892
 H  -4.63982862  -6.16661130  -5.47076590
 C  -4.54730882  -4.28106311  -4.38923062
 C  -4.24399908  -4.57221453  -6.85423041
 H  -4.47658989  -3.50102196  -6.91491952
 O  -5.07206181  -3.17863813  -4.23792292
 C  -2.75016850  -4.80075742  -6.90347912
 H  -2.24437847  -4.30161087  -6.07540119
 H  -2.54162894  -5.87229266  -6.85249641
 H  -2.34318017  -4.41195482  -7.83864313
 O  -4.87528815  -5.25236501  -7.94735978
 H  -4.50753616  -4.90992793  -8.76477789
 N  -3.63916844  -4.78553011  -3.52812791
 H  -3.31909862  -5.73360395  -3.65254770
 C  -3.38584381  -4.13549123  -2.23980431
 H  -4.33756837  -3.69601735  -1.94359743
 C  -2.40312488  -2.98184219  -2.44646561
 C  -2.99901206  -5.15772560  -1.16647231
 H  -3.83650634  -5.86499539  -1.15829232
 O  -1.19600834  -3.06132350  -2.22099820
 C  -2.93289489  -4.51233499   0.22191183
 H  -2.19145727  -3.70239181   0.18740842
 H  -2.54384493  -5.25816423   0.92295805
 C  -1.72244285  -5.93331378  -1.46520588
 H  -0.85351882  -5.28540535  -1.36158046
 H  -1.72224722  -6.34530341  -2.47550374
 H  -1.62322846  -6.76171998  -0.76044030
 C  -4.27328890  -4.00115060   0.73461497
 H  -4.20339168  -3.66026198   1.77181026
 H  -5.03067006  -4.78944106   0.70097586
 H  -4.63431009  -3.16058588   0.13161268
 N  -2.96221693  -1.83999341  -2.90447154
 H  -3.90655818  -1.89372103  -3.27248167
 C  -2.13617882  -0.70996254  -3.29520702
 H  -1.17715850  -1.12153098  -3.63886718
 C  -1.85064238   0.16934708  -2.06496417
 C  -2.81632060   0.07127822  -4.40743132
 H  -2.18407022   0.90272473  -4.72285799
 H  -3.76557228   0.48170415  -4.05854129
 H  -2.99356136  -0.58252309  -5.26383124
 O  -2.18550528   1.34447198  -1.99163407
 N  -1.22107142  -0.46983672  -1.03713159
 H  -0.75270459  -1.35042754  -1.21950689
 C  -0.77461163   0.27955522   0.11870933
 H  -1.28373056   1.24545514   0.08686480
 C   0.73352531   0.50780002   0.01225702
 C  -1.10257895  -0.44384037   1.42277953
 H  -0.61759047   0.07261692   2.25315002
 H  -0.68692036  -1.45068120   1.39075737
 O   1.49583217  -0.37232606  -0.34839290
 C  -2.60639768  -0.51339770   1.66951844
 H  -3.02007105   0.47904053   1.84715181
 H  -3.11305478  -0.92363312   0.79255605
 C  -2.95898944  -1.44083710   2.81790535
 N  -4.14656102  -1.17678657   3.43687621
 H  -4.61922673  -0.30300503   3.30194796
 H  -4.35412497  -1.71108763   4.26202777
 O  -2.28789458  -2.41939602   3.10917381
 N   1.15420389   1.74941265   0.37432724
 H   0.55380695   2.37512705   0.88854361
 C   2.55614684   2.08704700   0.42436819
 H   3.11969984   1.15333683   0.39193537
 C   2.79420264   2.84891638   1.73273131
 C   2.96885552   2.96679525  -0.76907606
 H   4.01893269   3.25029648  -0.65101512
 H   2.37934185   3.88657778  -0.72953021
 O   1.90371617   3.47294466   2.28286997
 C   2.77160637   2.28210651  -2.09577851
 C   3.82910152   1.63729656  -2.74118035
 H   4.81500036   1.64071227  -2.29196099
 C   1.51793813   2.26384640  -2.71817570
 H   0.67675811   2.74215519  -2.22726287
 C   3.65123472   0.99188559  -3.96292921
 H   4.47630172   0.49379526  -4.45538538
 C   1.32834128   1.62938298  -3.94307461
 H   0.35407914   1.64813362  -4.41755917
 O   2.26869048   0.35599167  -5.77084168
 H   1.36060345   0.45033431  -6.06849747
 C   2.39698713   0.99251249  -4.56724059
 N   4.06194539   2.82633280   2.20130091
 H   4.82452896   2.39615796   1.70205439
 C   4.44544518   3.59502791   3.36166954
 H   4.02566979   4.60210810   3.28486633
 C   5.97443271   3.67606685   3.33335665
 C   3.94557335   2.97596358   4.66615736
 H   4.23040483   3.60799406   5.51345450
 H   2.86007376   2.89104833   4.62835098
 H   4.38016513   1.98379831   4.80744547
 O   6.64636986   3.02748197   2.55255652
 N   6.50700013   4.50571167   4.25642604
 H   5.99045760   4.83713368   5.06059989
 C   7.92095293   4.52437021   4.52098571
 H   8.30979819   3.49384674   4.52715217
 C   8.03917156   5.12404521   5.95310499
 C   8.70106900   5.33254133   3.48011823
 H   8.50343968   6.39898214   3.62193554
 H   8.29193022   5.05908098   2.50863356
 O   9.17537980   5.31094464   6.40152375
 C   10.19843385   5.05150229   3.51879812
 H   10.36594741   3.98800319   3.32428724
 H   10.59218570   5.25418113   4.51721146
 C   10.95828609   5.86891436   2.49424324
 H   12.03919195   5.73691153   2.61942106
 H   10.73534924   6.92763024   2.64291882
 N   10.54162031   5.47276804   1.13096110
 H   10.39115964   4.48098393   1.01595695
 N   11.60787422   7.29117453   0.12634872
 H   12.17158286   7.59160218  -0.65378845
 H   11.96532058   7.54897613   1.03327747
 N   10.78905902   5.52365916  -1.18206557
 H   10.80237184   6.15970721  -1.96708972
 H   10.03213776   4.85254387  -1.22965117
 C   10.99244706   6.09497262   0.03371169
 O   6.94829987   5.33854222   6.52588621
