21
conf-584
 N  -5.04919038  -7.58223652  -4.43369532
 H  -4.53278932  -8.07775837  -3.70698584
 H  -5.16947981  -8.17641220  -5.25521664
 H  -5.96216527  -7.30840467  -4.06124798
 C  -4.36197576  -6.34129774  -4.83007958
 H  -3.27790190  -6.50775339  -4.86795235
 C  -4.69782566  -5.26946474  -3.79869262
 C  -4.82444060  -5.93065069  -6.23866880
 H  -5.89653053  -5.72731330  -6.19390821
 O  -5.77625490  -5.27088332  -3.21788654
 C  -4.08009196  -4.74178476  -6.80539697
 H  -4.24643849  -3.84140266  -6.21274983
 H  -3.00530268  -4.94987615  -6.82937000
 H  -4.41819147  -4.55202256  -7.82626373
 O  -4.69561590  -7.05087980  -7.11149999
 H  -3.76140750  -7.16035904  -7.30194423
 N  -3.76533492  -4.30902090  -3.61388599
 H  -2.87322866  -4.36313978  -4.08191197
 C  -3.93137577  -3.25853968  -2.61919705
 H  -4.95942471  -2.89901137  -2.69623914
 C  -2.95805598  -2.15430479  -2.99519361
 C  -3.73628437  -3.76699096  -1.17091186
 H  -4.54691061  -4.48766970  -1.03349510
 O  -1.75520703  -2.37890379  -3.14003389
 C  -3.90609341  -2.65923303  -0.12913518
 H  -3.10326639  -1.92822693  -0.25759612
 H  -3.74060084  -3.11178068   0.85115012
 C  -2.40407857  -4.47371822  -0.93162584
 H  -1.58470031  -3.75588927  -1.00703583
 H  -2.22667321  -5.27156289  -1.65372592
 H  -2.39117461  -4.90662479   0.06933514
 C  -5.26668841  -1.98021864  -0.12320315
 H  -5.38177438  -1.33834222   0.75001962
 H  -6.07099521  -2.71966339  -0.09504211
 H  -5.41476619  -1.35386988  -1.00695734
 N  -3.48226576  -0.92419378  -3.16288593
 H  -4.46392521  -0.76993352  -3.00845653
 C  -2.63584426   0.22975356  -3.42858572
 H  -1.76203036  -0.17807006  -3.94940957
 C  -2.17461651   0.82682187  -2.09087152
 C  -3.36416623   1.24530172  -4.28448592
 H  -2.71441357   2.09957942  -4.48148108
 H  -4.25525202   1.61013301  -3.77135146
 H  -3.65331695   0.79027415  -5.23336479
 O  -2.52571553   1.93512116  -1.69929403
 N  -1.40342942   0.00471606  -1.33012372
 H  -1.03290311  -0.86271929  -1.70557291
 C  -0.77194517   0.49131449  -0.12084687
 H  -0.87483752   1.57858319  -0.11392356
 C   0.70474196   0.11179188  -0.16471755
 C  -1.43742878  -0.06234932   1.13470026
 H  -0.85696257   0.24117748   2.00676095
 H  -1.42114451  -1.15291732   1.10706369
 O   1.09128521  -0.93636504  -0.65944313
 C  -2.87563409   0.42545573   1.27824991
 H  -2.90887005   1.51435351   1.33798457
 H  -3.46104171   0.14775914   0.39776731
 C  -3.57507604  -0.19562258   2.47239392
 N  -4.70283103   0.45455117   2.88633522
 H  -4.91069476   1.38571457   2.57913352
 H  -5.13599128   0.11805697   3.72764243
 O  -3.22209058  -1.25179431   2.97417045
 N   1.55474611   1.00781305   0.39600449
 H   1.22262373   1.81210677   0.90387424
 C   2.98524851   0.82082635   0.35708383
 H   3.17267310  -0.24584799   0.24563735
 C   3.56069229   1.36505622   1.65709086
 C   3.62151382   1.57089949  -0.83197123
 H   4.70307485   1.41934737  -0.79720965
 H   3.43821198   2.63951952  -0.67654650
 O   3.03748274   2.28665713   2.25590429
 C   3.06676332   1.15069158  -2.16455706
 C   3.63855094   0.11047272  -2.90061615
 H   4.51799443  -0.39763755  -2.51846166
 C   1.94200549   1.78449776  -2.70576510
 H   1.46181075   2.58424928  -2.14837514
 C   3.10660719  -0.29796310  -4.12194853
 H   3.55701039  -1.10677352  -4.68219809
 C   1.39977537   1.39099532  -3.92808774
 H   0.52451706   1.90157148  -4.31920065
 O   1.49980707  -0.08491857  -5.84259568
 H   0.74913821   0.46544098  -6.07976336
 C   1.98638447   0.34616067  -4.63780012
 N   4.71957962   0.77612991   2.07730204
 H   5.22924622   0.25691373   1.38527952
 C   5.55626530   1.46106501   3.05533264
 H   4.90545386   1.76314999   3.87711804
 C   6.16329153   2.71320657   2.41290851
 C   6.64775744   0.51647072   3.53230878
 H   7.27401133   0.99157061   4.29062838
 H   6.20338207  -0.38364571   3.95980492
 H   7.28249111   0.23304711   2.69043934
 O   6.54062412   2.72122108   1.25017067
 N   6.24826911   3.79485453   3.22956107
 H   6.27491544   3.71125236   4.24120892
 C   6.94183142   4.97865837   2.81248268
 H   7.65748948   4.73387992   2.01737333
 C   7.68602910   5.50966548   4.07552595
 C   6.01410942   6.09638883   2.33220166
 H   6.64236887   6.96952014   2.13672275
 H   5.32809580   6.35387026   3.14621766
 O   8.48210117   6.43372089   3.90142212
 C   5.24197774   5.69635665   1.08497852
 H   4.52227878   4.91690936   1.32672512
 H   5.93782469   5.26497679   0.36218203
 C   4.50958227   6.85233325   0.43020370
 H   4.04054975   6.50152842  -0.49264494
 H   5.21468697   7.64640252   0.15757335
 N   3.46557573   7.36947893   1.33767487
 H   3.70648280   7.31668838   2.31729115
 N   2.72353526   8.93840505  -0.23099714
 H   1.95632347   9.51498770  -0.53683464
 H   3.19470349   8.41614697  -0.95060022
 N   1.92585020   8.98273044   1.97482922
 H   1.19743496   9.60982417   1.66993346
 H   1.67177738   8.40073145   2.76210717
 C   2.69640284   8.41846196   1.01196246
 O   7.37727912   4.92989695   5.14201236
