21
conf-879
 N  -7.28880491  -0.13314579  -8.65286964
 H  -8.11768926   0.08813943  -8.10002148
 H  -7.58112121  -0.62791880  -9.49186340
 H  -6.87218503   0.75856476  -8.91942084
 C  -6.33387794  -0.91284696  -7.84388496
 H  -6.82977968  -1.81330334  -7.46660222
 C  -5.90709336  -0.05163313  -6.65027412
 C  -5.10408247  -1.35686468  -8.65015364
 H  -4.41120928  -1.84593621  -7.95931306
 O  -6.15763538   1.14382556  -6.59838257
 C  -5.43162251  -2.30904000  -9.78094908
 H  -5.96821281  -3.18962677  -9.41936472
 H  -6.04336494  -1.82195345  -10.54346526
 H  -4.50481382  -2.63457419  -10.25745961
 O  -4.38237432  -0.23004001  -9.13919032
 H  -4.90253302   0.16851648  -9.83954744
 N  -5.24876636  -0.71574436  -5.66829846
 H  -5.02059203  -1.69244557  -5.77153643
 C  -4.67846841  -0.05076854  -4.50381442
 H  -4.64226914   1.02159179  -4.70637734
 C  -3.28050829  -0.61466821  -4.32177194
 C  -5.51100635  -0.29347856  -3.22224656
 H  -5.72512397  -1.36537234  -3.19575025
 O  -3.10418509  -1.81859229  -4.21050089
 C  -6.83360001   0.46840178  -3.28949316
 H  -7.26606353   0.35496561  -4.28503404
 H  -6.61232949   1.53606647  -3.17912536
 C  -4.70280462   0.07361553  -1.98114668
 H  -4.36833644   1.11244639  -2.02988514
 H  -3.81477378  -0.55900844  -1.89791348
 H  -5.29507140  -0.04601457  -1.06987660
 C  -7.84495542   0.03218500  -2.23692643
 H  -8.76529537   0.61248506  -2.32101680
 H  -7.46055416   0.15907008  -1.22383758
 H  -8.09932158  -1.02381338  -2.36425701
 N  -2.27096478   0.29988280  -4.26379626
 H  -2.54350242   1.26818578  -4.18613997
 C  -1.04146348  -0.03874730  -3.57699189
 H  -1.01025858  -1.12393295  -3.53156532
 C  -1.11936239   0.54223587  -2.14190762
 C   0.17969981   0.53105957  -4.29046674
 H   1.09857530   0.15549981  -3.83141131
 H   0.16716973   1.62045938  -4.19148327
 H   0.16712956   0.26341766  -5.34573224
 O  -1.78298191   1.56595917  -1.92525929
 N  -0.39578869  -0.18236313  -1.22386648
 H   0.27598799  -0.80956463  -1.63783733
 C   0.16073960   0.40808684  -0.01584264
 H  -0.19963337   1.43377984   0.08865359
 C   1.68022618   0.42067016  -0.21262551
 C  -0.23076576  -0.39196252   1.22102724
 H   0.22390477   0.06727627   2.10241752
 H   0.17795943  -1.40273785   1.13937740
 O   2.22133130  -0.24870723  -1.07841012
 C  -1.74720254  -0.46183017   1.42825650
 H  -2.24156587  -0.87181259   0.54370821
 H  -1.96657768  -1.11483550   2.27647679
 C  -2.30797054   0.89802551   1.77115050
 N  -3.22086827   1.38891870   0.87302443
 H  -3.08170134   1.09878846  -0.08309125
 H  -3.46738928   2.35439832   1.00839415
 O  -1.99393103   1.49164874   2.78611321
 N   2.37615311   1.18577100   0.65182604
 H   1.94755070   1.70158088   1.40478300
 C   3.82132675   1.22834941   0.60569316
 H   4.19891175   0.21570800   0.44089159
 C   4.27413713   1.75268783   1.96474436
 C   4.32605889   2.10344524  -0.55769731
 H   3.95154852   3.12104325  -0.42917028
 H   3.87817479   1.69452472  -1.46413968
 O   3.51979809   2.40478196   2.67908677
 C   5.82691276   2.09710479  -0.63841987
 C   6.57341301   3.19016883  -0.19862500
 H   6.06169314   4.08791129   0.13100593
 C   6.50599818   0.95714373  -1.05392037
 H   5.92545708   0.09985861  -1.38933866
 C   7.96239920   3.12697973  -0.12920636
 H   8.53752707   3.96690237   0.24398636
 C   7.89528269   0.88756199  -1.00484181
 H   8.39869480  -0.01994222  -1.31972329
 O   9.99001348   1.97626051  -0.44856815
 H   10.32414967   1.12845838  -0.75435609
 C   8.62524984   1.97584802  -0.53614121
 N   5.54419342   1.46061487   2.32003961
 H   6.19014354   1.16691305   1.59706156
 C   6.12857132   2.02016411   3.52828579
 H   5.29443542   2.12434872   4.23100885
 C   6.68192567   3.42404549   3.25477766
 C   7.20750444   1.10022126   4.07059585
 H   7.63191588   1.51850203   4.98441805
 H   6.78070144   0.11948278   4.28655953
 H   8.01130397   0.98943886   3.33969913
 O   7.87095310   3.69259284   3.30902747
 N   5.76886990   4.34145937   2.84140153
 H   4.79540213   4.15794682   3.04511160
 C   6.20192817   5.71562032   2.84793479
 H   6.97228509   5.86751030   2.08600305
 C   6.82999650   6.05119100   4.26906376
 C   5.03150197   6.66457754   2.64856439
 H   4.30094043   6.49571341   3.43946821
 H   4.53587061   6.40699084   1.71183195
 O   7.74858643   6.88480558   4.26929840
 C   5.44752749   8.12729106   2.61032742
 H   6.21776126   8.26783119   1.84371428
 H   5.89564252   8.42767091   3.56156563
 C   4.27377540   9.04154543   2.28302011
 H   3.91271597   8.83507164   1.27531405
 H   4.58987989   10.08404251   2.30978446
 N   3.15421526   8.91625705   3.24226812
 H   3.44363293   9.15556617   4.18208547
 N   1.96698490   7.33491759   2.00399497
 H   1.23369986   6.64669922   1.96835545
 H   2.02587380   7.93196674   1.19231575
 N   1.86028576   7.29404199   4.34576845
 H   1.01395140   6.74449246   4.29937609
 H   1.95216278   7.81829738   5.20487118
 C   2.30665518   7.86997330   3.19770351
 O   6.26141407   5.41945513   5.17611559
