21
conf-472
 N  -7.46769589  -0.62821012  -8.50764811
 H  -7.49816268   0.38842967  -8.47694944
 H  -8.40357259  -1.01190234  -8.39335279
 H  -7.11717266  -0.91260231  -9.42850309
 C  -6.53260125  -1.18056289  -7.50849174
 H  -7.04602662  -1.29592836  -6.55262916
 C  -5.33478083  -0.25085704  -7.33026179
 C  -6.02038334  -2.55240701  -7.99272798
 H  -5.17199410  -2.86055632  -7.36838895
 O  -4.77231425   0.25780038  -8.30923571
 C  -7.08194986  -3.62733630  -7.95092229
 H  -7.42749836  -3.79603052  -6.92735166
 H  -7.94022250  -3.35406030  -8.56576123
 H  -6.67217459  -4.55894202  -8.34230540
 O  -5.59657880  -2.44729173  -9.35386777
 H  -4.87746068  -1.80378962  -9.39429910
 N  -4.93924956  -0.04477085  -6.04955522
 H  -5.29004109  -0.64808093  -5.31539537
 C  -3.63927296   0.52616612  -5.72284253
 H  -3.03099626   0.55919172  -6.63052587
 C  -3.03210506  -0.43356676  -4.69839340
 C  -3.75991353   1.96384202  -5.17406949
 H  -4.40718382   1.89372543  -4.29319942
 O  -3.73676331  -1.10091058  -3.95830175
 C  -4.44866389   2.90492366  -6.17538218
 H  -4.67292380   3.83732502  -5.64830198
 H  -5.41365642   2.48373926  -6.46759638
 C  -2.41498756   2.54990952  -4.74717563
 H  -1.69153782   2.48497261  -5.56969355
 H  -2.00004500   2.04188655  -3.88425490
 H  -2.53953823   3.60610093  -4.49042641
 C  -3.62521786   3.21982179  -7.41961964
 H  -4.19433651   3.85380668  -8.10247177
 H  -3.36221325   2.30489089  -7.95657133
 H  -2.70383090   3.74626452  -7.16482015
 N  -1.67273512  -0.51311504  -4.67699943
 H  -1.14528787   0.25161994  -5.06425907
 C  -1.00520779  -1.30208351  -3.66415103
 H  -1.64540038  -2.16202693  -3.46548013
 C  -0.87612141  -0.51153225  -2.36160453
 C   0.36263676  -1.77306339  -4.15562899
 H   0.88349680  -2.31633880  -3.36276791
 H   0.97951976  -0.91619421  -4.43722640
 H   0.24827929  -2.42589011  -5.02134812
 O  -0.84702624   0.70896103  -2.31155601
 N  -0.77254172  -1.27187351  -1.23040433
 H  -0.51472633  -2.23313128  -1.36371347
 C  -0.23309494  -0.64511140  -0.03124985
 H  -0.87545813   0.20443402   0.20616225
 C   1.18284348  -0.14492829  -0.32796018
 C  -0.23809946  -1.64137492   1.12952098
 H   0.39499167  -2.48927232   0.86668440
 H  -1.25192811  -2.02218373   1.24685420
 O   1.93351056  -0.72785790  -1.09832917
 C   0.21902926  -1.02318911   2.44691350
 H   1.24317147  -0.66297581   2.38992147
 H  -0.39848422  -0.14763494   2.68107119
 C   0.10402576  -1.98329566   3.62214289
 N   0.77695575  -1.57773710   4.74225816
 H   1.41034615  -0.79779175   4.72390919
 H   0.78385086  -2.20068705   5.53051931
 O  -0.56514962  -2.99937217   3.59881052
 N   1.52218022   0.99122884   0.34421359
 H   0.95348503   1.26935436   1.12720376
 C   2.88481822   1.45959493   0.40522427
 H   3.50597295   0.73184236  -0.12022558
 C   3.28343732   1.52641904   1.88413096
 C   3.03870959   2.83263012  -0.26412682
 H   4.04839950   3.20934734  -0.07350198
 H   2.34341573   3.52688444   0.21541941
 O   2.44863052   1.58176570   2.78011045
 C   2.80180508   2.78277862  -1.75398621
 C   3.87887060   2.79865446  -2.64255205
 H   4.88763562   2.87026632  -2.25775489
 C   1.51297727   2.68818876  -2.28680800
 H   0.65742403   2.66358571  -1.62589483
 C   3.68772377   2.73442307  -4.02102076
 H   4.52961698   2.75464015  -4.70199373
 C   1.30996388   2.61487866  -3.66518110
 H   0.30297149   2.55268431  -4.06879301
 O   2.24717631   2.60650390  -5.89434253
 H   1.30532274   2.57932941  -6.08396285
 C   2.39946900   2.65175955  -4.53529173
 N   4.60995532   1.55288808   2.13016461
 H   5.30442069   1.56280909   1.39976343
 C   5.12288728   1.67232278   3.47422032
 H   4.56118882   2.44355461   4.00719016
 C   6.58460313   2.10694933   3.33086507
 C   5.00918776   0.36605131   4.25921783
 H   5.40956472   0.49395156   5.26828001
 H   3.95805131   0.08211978   4.32361696
 H   5.55976609  -0.43355692   3.75791337
 O   7.18454470   2.02312231   2.27542011
 N   7.15503501   2.55663943   4.47121322
 H   6.75934777   2.39886622   5.38930295
 C   8.57503284   2.76920121   4.55944786
 H   9.10665693   1.94939191   4.05198786
 C   8.88717411   2.71569896   6.08250232
 C   9.00779251   4.09228401   3.92898211
 H   8.65289602   4.92137268   4.54884648
 H   8.49593536   4.16617550   2.96829367
 O   7.91591826   2.41804239   6.81162969
 C   10.51544906   4.17204854   3.72205846
 H   10.81071107   3.38828410   3.01855371
 H   11.03365320   3.97655667   4.66183689
 C   10.93948453   5.51987117   3.17249346
 H   10.68272409   6.29825915   3.89819292
 H   10.39448902   5.74171950   2.24715099
 N   12.39577162   5.52644995   2.93921354
 H   12.77527055   4.64254537   2.63415879
 N   12.39162569   7.77394449   2.28977273
 H   12.92900961   8.62122976   2.20571626
 H   11.47382779   7.86999163   2.68930303
 N   14.32757250   6.46427358   2.07296181
 H   14.85439669   7.30958046   1.91774640
 H   14.85207247   5.71977089   2.51119102
 C   13.03380379   6.60232576   2.45006469
 O   10.05137279   2.94245860   6.43256282
