21
conf-242
 N  -7.62196216  -4.34202116  -5.08808479
 H  -7.51147806  -4.59273510  -4.10840210
 H  -7.66609660  -5.17747511  -5.66680918
 H  -8.50746067  -3.83506755  -5.18692717
 C  -6.55913684  -3.42401638  -5.54105182
 H  -5.68571809  -3.99636488  -5.86119099
 C  -6.16787538  -2.49012593  -4.40736727
 C  -7.08182357  -2.57353047  -6.71449362
 H  -6.38292100  -1.74828070  -6.90057523
 O  -7.02027492  -2.00038282  -3.65819102
 C  -7.25889631  -3.36955951  -7.98575194
 H  -6.30382895  -3.77706658  -8.32813467
 H  -7.95382739  -4.19632034  -7.83396915
 H  -7.66800879  -2.72683433  -8.76585977
 O  -8.36673076  -2.04146157  -6.38119517
 H  -8.27052437  -1.49587096  -5.58968775
 N  -4.85853023  -2.18175883  -4.30645547
 H  -4.16178539  -2.67064401  -4.84979183
 C  -4.36781659  -1.33105419  -3.23475232
 H  -5.06627542  -0.49923107  -3.13352025
 C  -3.00309759  -0.82167631  -3.67585181
 C  -4.30995753  -2.06449767  -1.86392189
 H  -5.35208681  -2.16328458  -1.55487548
 O  -2.12958615  -1.59469010  -4.06597273
 C  -3.57569277  -1.25827424  -0.78420434
 H  -2.53442551  -1.10453797  -1.09074479
 H  -3.53407446  -1.89324409   0.11052916
 C  -3.69928083  -3.46195676  -1.96832931
 H  -2.71727963  -3.40992579  -2.43866481
 H  -4.32960165  -4.12510695  -2.56167112
 H  -3.58556414  -3.90077451  -0.97621997
 C  -4.23024172   0.05370837  -0.38887917
 H  -3.65680202   0.54596693   0.39946198
 H  -5.24229002  -0.11823009  -0.01691287
 H  -4.29545438   0.75673465  -1.22104612
 N  -2.79290534   0.51377863  -3.57104914
 H  -3.51625641   1.08261234  -3.16012191
 C  -1.43518754   1.06627102  -3.53473100
 H  -0.86376981   0.51403962  -4.28209221
 C  -0.83875075   0.79489806  -2.15071143
 C  -1.48258339   2.54707381  -3.85173647
 H  -0.47589778   2.97056481  -3.85684639
 H  -2.07359599   3.07800280  -3.10449728
 H  -1.93186436   2.69533760  -4.83564337
 O  -0.97596039   1.57491376  -1.20603988
 N  -0.22973222  -0.40132466  -2.00998905
 H  -0.29572505  -1.06915201  -2.76754634
 C   0.10506603  -0.90284573  -0.68425706
 H  -0.59889222  -0.42022573   0.01176519
 C   1.52890017  -0.46757070  -0.33311848
 C  -0.06402223  -2.41089076  -0.61534503
 H   0.73658806  -2.88768185  -1.17856161
 H  -1.01165515  -2.66709919  -1.10276633
 O   2.47442649  -1.24678507  -0.31826741
 C  -0.09923622  -2.92580127   0.81659575
 H   0.87379462  -2.81368422   1.28941512
 H  -0.81557879  -2.33983916   1.40082448
 C  -0.57209796  -4.36702640   0.89539583
 N  -0.06329763  -5.09998418   1.92055298
 H   0.62191615  -4.73612247   2.55465539
 H  -0.35815721  -6.05664194   1.99913397
 O  -1.39663027  -4.83043420   0.12345907
 N   1.68252530   0.84636161  -0.06177678
 H   0.91421255   1.50247655  -0.14782809
 C   2.98720709   1.36854801   0.27357857
 H   3.51525917   0.61810154   0.86886092
 C   2.78842142   2.66100652   1.06239049
 C   3.82735371   1.63822319  -0.98751611
 H   3.30602906   2.37870699  -1.59713741
 H   3.86572186   0.70223842  -1.54590538
 O   1.85042453   3.40891797   0.84732022
 C   5.21594468   2.10904001  -0.64481839
 C   5.55559351   3.45973292  -0.69428471
 H   4.80043549   4.18742371  -0.96754199
 C   6.18463462   1.19464290  -0.23456001
 H   5.90905506   0.14565074  -0.16317710
 C   6.84627627   3.88441264  -0.37637567
 H   7.11345453   4.93256334  -0.42784416
 C   7.47890639   1.60424059   0.08118982
 H   8.22159158   0.87546979   0.38442719
 O   9.07366262   3.41387367   0.27201607
 H   9.62392603   2.66420624   0.51041483
 C   7.80707679   2.95569524  -0.00158906
 N   3.74829819   2.93433060   1.97370068
 H   4.60008010   2.39409787   2.01867074
 C   3.77860462   4.20224034   2.65648982
 H   3.57408843   5.00914471   1.94447119
 C   5.19287269   4.36811009   3.21704148
 C   2.73347754   4.28772750   3.76995283
 H   2.78826952   5.26450811   4.26246905
 H   1.74229338   4.15406508   3.33839763
 H   2.90875821   3.50985595   4.51609740
 O   5.99786089   3.45798770   3.23113906
 N   5.43944031   5.61018139   3.70939111
 H   4.65894626   6.19403365   3.98877552
 C   6.54067534   5.87110690   4.59316078
 H   6.86527619   4.94508719   5.09299345
 C   5.96924001   6.85563374   5.66903566
 C   7.74857744   6.52220550   3.92464026
 H   8.42289655   6.84518761   4.72218934
 H   7.43744937   7.41580671   3.37998270
 O   6.72809481   7.20966757   6.57047009
 C   8.47652159   5.56764588   2.99188478
 H   7.81801902   5.22379186   2.19761029
 H   8.76934694   4.67537702   3.55970824
 C   9.72525336   6.20043873   2.40953608
 H   10.32008644   5.45996832   1.87039161
 H   10.33846933   6.59040295   3.22407732
 N   9.34378423   7.31086880   1.51000291
 H   8.53763429   7.11950892   0.93342900
 N   11.51269974   8.17614318   1.42463922
 H   12.21902677   8.57601843   0.82597141
 H   11.81876007   7.38736569   1.97407846
 N   9.86516237   8.95733608  -0.05268600
 H   10.43446377   9.78300191  -0.17685726
 H   8.87245098   9.14829773  -0.11254917
 C   10.24687762   8.13430069   0.95924125
 O   4.76661682   7.16189639   5.49293358
