21
conf-578
 N  -6.36319087  -3.72620393  -6.35093586
 H  -7.08139798  -3.76511770  -5.62698392
 H  -6.23402219  -4.64860771  -6.77262388
 H  -6.64810337  -3.06248290  -7.07548746
 C  -5.06584954  -3.28912484  -5.80373771
 H  -4.85395557  -3.82017451  -4.86972111
 C  -5.10065336  -1.78756356  -5.55912608
 C  -3.96563897  -3.64251937  -6.80958908
 H  -4.13637342  -3.04169433  -7.71209021
 O  -5.63534892  -1.02587669  -6.36224018
 C  -2.56219154  -3.43479052  -6.28437842
 H  -2.36933290  -2.38704209  -6.04114754
 H  -2.41762041  -4.04251043  -5.38657809
 H  -1.83638023  -3.75144956  -7.03579231
 O  -4.17042297  -5.02855788  -7.11670070
 H  -3.51538694  -5.29098502  -7.76688628
 N  -4.49873799  -1.37252359  -4.41365239
 H  -3.89860027  -2.02256215  -3.92634929
 C  -4.16977464   0.02196873  -4.15861204
 H  -4.31798742   0.59294574  -5.07844742
 C  -2.70058564   0.02652823  -3.76944948
 C  -5.07464017   0.63139403  -3.06198600
 H  -5.16088846  -0.12803714  -2.27368408
 O  -2.23268400  -0.87622150  -3.08031483
 C  -6.47199713   0.87500378  -3.64176901
 H  -6.73829416   0.04733390  -4.30157419
 H  -6.40970923   1.75877955  -4.28617331
 C  -4.50963576   1.92229516  -2.46564503
 H  -4.37917188   2.67855149  -3.24876074
 H  -3.54093269   1.79342813  -1.96346353
 H  -5.20298668   2.33423807  -1.73166816
 C  -7.54982468   1.07793997  -2.58507583
 H  -8.51422215   1.28835261  -3.05087376
 H  -7.31513245   1.90665373  -1.91537819
 H  -7.66335145   0.18018122  -1.97098495
 N  -1.95736767   1.06738950  -4.22456551
 H  -2.46228379   1.88347758  -4.52613151
 C  -0.62745459   1.33946429  -3.68585215
 H  -0.07979193   0.39899652  -3.71440630
 C  -0.71724474   1.81896738  -2.22130630
 C   0.05279035   2.42026292  -4.50181017
 H   1.04091682   2.63494366  -4.08777463
 H  -0.53294953   3.33911364  -4.45336480
 H   0.15628074   2.11116157  -5.54268566
 O  -1.31446956   2.88991144  -1.94541527
 N  -0.12285141   0.98168142  -1.33149562
 H   0.46798462   0.25863366  -1.69523922
 C  -0.11441865   1.23039995   0.10170386
 H  -1.06293518   1.74020335   0.29827390
 C   1.07074354   2.14689811   0.42277199
 C  -0.00470543  -0.06971607   0.89574897
 H  -0.18462825   0.15675678   1.94919680
 H   1.01470725  -0.45427530   0.82162685
 O   2.19034792   1.70797009   0.67811864
 C  -0.99915677  -1.13600608   0.44416744
 H  -0.83464697  -1.42244931  -0.59807240
 H  -0.86301388  -2.04249881   1.04016896
 C  -2.43325869  -0.69533191   0.65325759
 N  -3.31836342  -1.14528149  -0.27728496
 H  -2.99268183  -1.39627449  -1.19919848
 H  -4.25226091  -0.79982832  -0.17634619
 O  -2.77859551  -0.03810571   1.62075258
 N   0.80139511   3.46440097   0.35677571
 H  -0.08183942   3.68463985  -0.08373936
 C   1.86177172   4.45444065   0.27269812
 H   2.72239779   3.95749853  -0.19214291
 C   2.33631282   4.89506551   1.66760120
 C   1.43661747   5.63316173  -0.61397410
 H   1.47104412   5.28116068  -1.65108823
 H   2.19654270   6.40767383  -0.50282730
 O   2.55882692   6.06237992   1.95371671
 C   0.06363474   6.19070121  -0.34316010
 C  -0.98095618   5.93692933  -1.23294474
 H  -0.79592702   5.32507252  -2.10313449
 C  -0.21710247   6.97025348   0.78135350
 H   0.58156474   7.18306761   1.47729257
 C  -2.26519038   6.41085185  -1.00198136
 H  -3.07234224   6.19455471  -1.68877685
 C  -1.49813565   7.46368860   1.02273215
 H  -1.68825007   8.06524651   1.90513700
 O  -3.80300281   7.62702880   0.30134027
 H  -3.84826878   8.14187529   1.11081681
 C  -2.52436072   7.18017340   0.12736387
 N   2.51178610   3.88768832   2.55758506
 H   2.60088975   2.94251344   2.20597054
 C   3.05524176   4.16259001   3.86929731
 H   2.89143466   5.22457012   4.05193747
 C   4.55868755   3.86741364   3.87344757
 C   2.36609108   3.30691521   4.92549709
 H   2.74250495   3.55794165   5.92018711
 H   1.28701348   3.46746996   4.90046353
 H   2.57227155   2.25177330   4.73447934
 O   5.01091547   2.85219495   3.36998298
 N   5.33050013   4.77166296   4.51757601
 H   4.96757763   5.46432613   5.16301614
 C   6.72341686   4.51112516   4.76219622
 H   6.84954355   3.46750601   5.08986841
 C   7.11281654   5.46471247   5.93012242
 C   7.59130005   4.74450653   3.51970090
 H   7.68789892   5.81917969   3.34072977
 H   7.04481811   4.32771079   2.67480396
 O   8.29502769   5.45724960   6.29479642
 C   8.96275647   4.08963410   3.63310926
 H   8.83285137   3.00984930   3.75266471
 H   9.47316641   4.44536326   4.53079932
 C   9.82451072   4.35547266   2.41597760
 H   10.84061264   3.97507723   2.57145323
 H   9.89608486   5.43344009   2.25601973
 N   9.21241876   3.72845221   1.22390993
 H   8.80428209   2.82137146   1.39707026
 N   10.62485651   4.84647907  -0.26211705
 H   11.18119022   4.75963806  -1.09854071
 H   11.10906275   5.23614324   0.53191960
 N   9.27723330   3.07618561  -1.00847225
 H   9.39019960   3.44492314  -1.94243114
 H   8.37197799   2.64734745  -0.85936222
 C   9.71784920   3.88183141  -0.00713294
 O   6.17296558   6.13609456   6.40419514
