21
conf-428
 N  -7.10130908  -2.90821945  -6.12784012
 H  -7.91159731  -2.93969179  -5.50884602
 H  -7.40592323  -3.13621160  -7.07104725
 H  -6.76216962  -1.94748943  -6.11113830
 C  -6.05369097  -3.82451665  -5.63869192
 H  -6.46578511  -4.83525722  -5.54929854
 C  -5.62548469  -3.34745656  -4.25089807
 C  -4.84329513  -3.89367845  -6.58205421
 H  -4.07673199  -4.50620981  -6.10230299
 O  -5.97050529  -2.25678237  -3.81186146
 C  -5.16957358  -4.48035125  -7.93934392
 H  -5.62074914  -5.47129431  -7.84684986
 H  -5.85899998  -3.83890906  -8.49293843
 H  -4.25284922  -4.56595151  -8.52600229
 O  -4.23293376  -2.61466829  -6.72256420
 H  -4.83077598  -2.06506539  -7.23350729
 N  -4.85607602  -4.20893294  -3.53745721
 H  -4.46110717  -5.01725782  -3.98672543
 C  -4.34699961  -3.83757040  -2.22135227
 H  -5.15585474  -3.31237897  -1.71040990
 C  -3.18733082  -2.86145729  -2.40737473
 C  -3.92287528  -5.03546514  -1.36405093
 H  -3.07407259  -5.51080573  -1.86544953
 O  -2.02074143  -3.23732750  -2.56417377
 C  -5.04980781  -6.05757994  -1.22793510
 H  -5.46839961  -6.27738116  -2.21036153
 H  -5.85731891  -5.59500138  -0.64961165
 C  -3.48269675  -4.51806376   0.00965800
 H  -4.35513911  -4.11734304   0.53505764
 H  -2.75669052  -3.71045670  -0.09184879
 H  -3.04048937  -5.30234619   0.63046604
 C  -4.61714732  -7.36055973  -0.57183376
 H  -5.45065767  -8.06328582  -0.51728439
 H  -4.25192797  -7.20020011   0.44468621
 H  -3.81478261  -7.83896681  -1.14082306
 N  -3.52867402  -1.56235923  -2.37604951
 H  -4.50647531  -1.33663885  -2.50804138
 C  -2.54536045  -0.51189398  -2.59390407
 H  -1.80730935  -0.91526322  -3.29876999
 C  -1.81186682  -0.21223248  -1.27131614
 C  -3.22032468   0.72103850  -3.16251124
 H  -2.48362241   1.50678162  -3.32947830
 H  -3.97053172   1.09887996  -2.46698508
 H  -3.69683943   0.47414543  -4.11295133
 O  -1.76739833   0.90893255  -0.77444828
 N  -1.24891075  -1.29834470  -0.68375188
 H  -1.17377250  -2.13368896  -1.25066885
 C  -0.45811980  -1.19200335   0.52112415
 H  -0.90045247  -0.38257591   1.10529982
 C   0.99319607  -0.83270673   0.19530568
 C  -0.51831795  -2.48526406   1.33701115
 H  -1.56516870  -2.68267396   1.58696824
 H   0.00233409  -2.32526501   2.28397945
 O   1.58099145  -1.25698487  -0.78610007
 C   0.05526014  -3.70115307   0.61817072
 H  -0.49188758  -3.87537843  -0.31276425
 H   1.09481691  -3.54760638   0.33657641
 C  -0.08817885  -4.97235141   1.44078183
 N   0.85799889  -5.92425730   1.21371763
 H   1.65965187  -5.75705710   0.63520837
 H   0.80940070  -6.76292795   1.76378087
 O  -1.01970694  -5.15815717   2.20983762
 N   1.58486880  -0.02031437   1.11864705
 H   1.17451962   0.10486449   2.03057078
 C   2.97876687   0.34800896   1.02675418
 H   3.43004888  -0.27892277   0.25774294
 C   3.61498864   0.11722693   2.39489941
 C   3.14996310   1.83227856   0.64234899
 H   4.21069056   2.09266054   0.70348036
 H   2.62726858   2.42496960   1.39766262
 O   2.97608453   0.22797475   3.42640193
 C   2.62108464   2.15206251  -0.72846672
 C   3.47183626   2.27735658  -1.82796334
 H   4.54085526   2.16603478  -1.69642190
 C   1.24735156   2.31229611  -0.94279142
 H   0.56416023   2.21643143  -0.10582875
 C   2.97651931   2.55429579  -3.09967741
 H   3.64287736   2.65633408  -3.94694412
 C   0.73539067   2.57077048  -2.21264420
 H  -0.33386160   2.66269815  -2.35085823
 O   1.16924158   2.97576436  -4.55927883
 H   0.21235786   3.05637495  -4.54113899
 C   1.60659002   2.70304843  -3.29354710
 N   4.95041139  -0.18044282   2.37706552
 H   5.43804802   0.04791504   1.52633784
 C   5.73903921   0.04471824   3.57575946
 H   5.07088302  -0.10688902   4.42226054
 C   6.22739895   1.50164996   3.58070722
 C   6.91857291  -0.91650851   3.64977147
 H   7.50057883  -0.73615224   4.55952549
 H   6.56235168  -1.94650623   3.65693218
 H   7.57980515  -0.77742889   2.79022502
 O   6.36782484   2.15148357   2.55867929
 N   6.51734634   1.98502612   4.82065092
 H   6.73234487   1.34301334   5.57652700
 C   7.30183508   3.17668130   4.98013395
 H   7.84836608   3.40186428   4.05307440
 C   8.31752315   2.85690994   6.12558618
 C   6.49684504   4.40631809   5.39824261
 H   7.21712835   5.18016828   5.67914878
 H   5.90546662   4.17115013   6.28879588
 O   9.16727481   3.71434718   6.36903986
 C   5.58398812   4.92107944   4.29539344
 H   4.88485480   4.14372165   3.99901777
 H   6.18448037   5.16626544   3.41455778
 C   4.81047832   6.14965378   4.73716561
 H   5.50437792   6.93667773   5.05672291
 H   4.19078060   5.88837136   5.59998030
 N   3.94803976   6.62226316   3.63875841
 H   4.33379607   6.49430995   2.71534964
 N   3.01928941   8.31829865   4.95493701
 H   2.22929759   8.92456377   5.10351991
 H   3.38559256   7.86023619   5.77181281
 N   2.55605960   8.19064012   2.65664575
 H   1.80839449   8.85282207   2.79353811
 H   2.40311815   7.53897767   1.89939159
 C   3.16152317   7.70355496   3.76638868
 O   8.15355464   1.74015590   6.67319588
