21
conf-746
 N  -5.91126204   0.86765847   3.82047882
 H  -6.41495654   1.27347258   3.02160368
 H  -6.01634138  -0.15110803   3.78251409
 H  -6.33395526   1.21413766   4.68109523
 C  -4.47175429   1.19339165   3.75289360
 H  -4.35123135   2.28004411   3.65959115
 C  -3.90885208   0.51258400   2.51349966
 C  -3.76360408   0.69686286   5.00896423
 H  -4.30701925   1.09983253   5.86703908
 H  -3.87051738  -0.38593657   5.05233991
 O  -4.12458528  -0.67659554   2.30182609
 C  -2.29266884   1.07885841   5.10132796
 H  -2.15253861   2.16049868   5.03175469
 H  -1.72148822   0.63610853   4.28058714
 C  -1.65860169   0.60254382   6.38262139
 O  -2.12974530  -0.19623407   7.15091282
 O  -0.44504055   1.16913230   6.57543120
 N  -3.16495943   1.28715373   1.68659774
 H  -2.90435069   2.23108337   1.92413522
 C  -2.67230653   0.80130407   0.41903733
 H  -2.64319364  -0.28587243   0.48635916
 C  -1.28600182   1.40678328   0.20222376
 C  -3.58655778   1.20996458  -0.76097226
 H  -3.22982582   0.70676642  -1.66304292
 H  -3.48913647   2.28782583  -0.91825863
 O  -0.98913032   2.50341971   0.64513497
 C  -5.02449880   0.85812976  -0.51395354
 C  -5.65873484  -0.30602737  -0.84751394
 H  -5.28011661  -1.16520429  -1.38120134
 C  -5.99058510   1.65714551   0.19929588
 C  -7.17377129   0.91579750   0.28325998
 C  -5.93424060   2.93118890   0.77898106
 H  -5.01556236   3.51589638   0.74915392
 N  -6.95092615  -0.28416075  -0.36089201
 H  -7.61510969  -1.02827942  -0.46076037
 C  -8.22256905   2.64795346   1.51717426
 H  -9.06774101   3.03193436   2.07635580
 C  -8.30191750   1.38857726   0.94729142
 H  -9.19339362   0.77910782   1.04477541
 C  -7.05388860   3.41206117   1.43326343
 H  -7.01491415   4.37855515   1.92213027
 N  -0.44170251   0.67236029  -0.56017942
 H  -0.73712880  -0.16677377  -1.03753888
 C   0.85124643   1.18690726  -0.96185487
 H   0.74225376   2.25409203  -1.18831524
 C   1.27694251   0.38714178  -2.19434048
 C   1.88489841   1.07327230   0.19360658
 H   1.40726205   1.52336137   1.05887421
 O   0.77004888  -0.68292276  -2.46411694
 C   2.31766001  -0.34600230   0.48931573
 H   1.44730200  -0.96586807   0.70741504
 H   2.98251499  -0.36486462   1.35372569
 H   2.83119551  -0.78420586  -0.36907850
 O   3.09931901   1.88021304  -0.06793583
 H   3.74005385   1.48321167  -0.74418457
 N   2.28065779   0.96109790  -2.92067969
 H   2.77172945   1.71451394  -2.47931846
 C   3.23145507   0.14731590  -3.64076320
 H   2.90734653  -0.89677185  -3.61007925
 C   4.59178824   0.28880803  -2.91136394
 C   3.36434048   0.59225013  -5.09862199
 H   3.81174277   1.58719041  -5.14347497
 H   2.34839980   0.68796266  -5.49787025
 O   5.49188252  -0.49604478  -3.19251870
 C   4.13661752  -0.41446545  -5.94376588
 H   5.11254094  -0.61937202  -5.49792499
 H   3.58661886  -1.36300569  -5.92901727
 C   4.29865844   0.00238498  -7.40123008
 H   4.69361286  -0.84119689  -7.97105408
 H   3.32958114   0.25214623  -7.83987375
 N   5.19511201   1.12524684  -7.61183727
 H   6.10474507   1.01373271  -7.19474306
 N   5.86616666   3.31978344  -7.71199672
 H   5.55050066   4.26646993  -7.87110611
 H   6.57141921   3.03427629  -8.37406873
 N   3.59165996   2.92212657  -7.52245307
 H   2.92725227   2.16397109  -7.39385211
 C   4.77995946   2.45173670  -7.62381764
 O   4.66711808   1.23930712  -2.09010011
 H  -0.10526396   0.79647875   7.39966709
 H   2.91636589   2.81840122  -0.27024861
