21
conf-315
 N  -5.78982815   1.45017396   3.33003734
 H  -6.18189887   1.27146429   2.40095405
 H  -5.79938387   0.57246619   3.84726265
 H  -6.32933067   2.15616651   3.83013404
 C  -4.40788420   1.91441684   3.13555335
 H  -4.41981880   2.99200838   2.94578932
 C  -3.88594474   1.24793000   1.85712048
 C  -3.52351723   1.67683229   4.35930608
 H  -3.30259193   0.61284751   4.46343271
 H  -2.57703292   2.19780557   4.19419680
 O  -4.65928904   0.69792122   1.08811167
 C  -4.15259029   2.18458255   5.66072846
 H  -3.41095896   2.19970382   6.46044778
 H  -4.97398569   1.53028541   5.96248172
 C  -4.70017584   3.55531534   5.42384613
 O  -5.84822235   3.77372617   5.12230602
 O  -3.76516016   4.53061305   5.48711947
 N  -2.56605221   1.35154743   1.62114464
 H  -1.92611340   1.75623067   2.28440645
 C  -1.94756520   0.73691414   0.46688337
 H  -2.33557589  -0.27918662   0.35225220
 C  -0.45107792   0.71133168   0.78954101
 C  -2.27653572   1.50013773  -0.83048109
 H  -1.77665643   2.46990897  -0.80208595
 H  -3.35015137   1.70473788  -0.80300306
 O  -0.00391836   1.29276591   1.78656295
 C  -1.92686902   0.76288086  -2.09727225
 C  -1.77456996  -0.58428297  -2.27858391
 H  -1.85907788  -1.39658965  -1.57417414
 C  -1.67400001   1.36538772  -3.38336096
 C  -1.35160558   0.33457043  -4.27804479
 C  -1.66606337   2.69624717  -3.83603300
 H  -1.90579395   3.52023146  -3.17431763
 N  -1.45392555  -0.85786202  -3.59665794
 H  -0.90695045  -1.66553744  -3.84449623
 C  -1.03626669   1.89872700  -6.03978651
 H  -0.77179573   2.13062552  -7.06248474
 C  -1.02360585   0.57822642  -5.61032146
 H  -0.77975749  -0.23783756  -6.27639991
 C  -1.35542163   2.94310302  -5.16527656
 H  -1.33944484   3.96301323  -5.53005646
 N   0.33428678   0.05291241  -0.05693382
 H  -0.04589510  -0.36926999  -0.88447877
 C   1.78518930   0.08299498  -0.04171932
 H   2.13655760   1.08639770   0.21351938
 C   2.16885879  -0.27060870  -1.48516677
 C   2.35130996  -0.89223916   1.01032581
 H   1.95350007  -1.88445580   0.80153535
 O   1.38106943  -0.83355620  -2.23518851
 C   3.86096219  -0.91031871   1.12622895
 H   4.32735632  -1.28990174   0.22059918
 H   4.16413383  -1.54529548   1.95879787
 H   4.24135104   0.09978202   1.31107655
 O   1.82640126  -0.47688681   2.34227412
 H   1.19486723   0.32218972   2.19722188
 N   3.41897860   0.10230816  -1.85924782
 H   4.15119305   0.23768975  -1.17901905
 C   4.00449074  -0.32952222  -3.09831938
 H   3.49317242  -1.22370567  -3.47882406
 C   5.49086569  -0.66133488  -2.76553378
 C   4.01511156   0.74106848  -4.19081881
 H   4.62953335   0.34733016  -5.00289645
 H   4.50976507   1.64173819  -3.81225932
 O   6.16420901  -1.18079765  -3.65497353
 C   2.61992682   1.09238272  -4.68282356
 H   2.14644871   0.19596998  -5.09776594
 H   2.00797316   1.41231769  -3.84102467
 C   2.61266736   2.21002475  -5.72260346
 H   1.58750699   2.48711144  -5.97821477
 H   3.07389673   3.10273692  -5.28963749
 N   3.33386303   1.91390892  -6.94356506
 H   4.33568056   1.94648702  -6.87999370
 N   1.49585302   0.88264906  -7.97462033
 H   1.27288325   0.23462681  -8.71466612
 H   1.11180149   0.61592273  -7.08418431
 N   3.55317272   0.73625377  -8.99058410
 H   4.51523594   1.05349450  -8.90760964
 C   2.86327881   1.14216714  -7.98872575
 O   5.83944707  -0.34954545  -1.60389986
 H  -4.21289324   5.36013971   5.27750555
 H   1.27257997  -1.16830763   2.75921054
