21
conf-883
 N  -4.22397521   2.51528249   4.54309959
 H  -4.82424498   3.16183675   4.02712327
 H  -4.71804196   1.62305491   4.61011755
 H  -4.08519746   2.87332273   5.48726274
 C  -2.93249011   2.31749784   3.85748484
 H  -2.56957357   3.28764447   3.50568607
 C  -3.09580144   1.42427749   2.61817830
 C  -1.87644014   1.73468469   4.80309335
 H  -0.97621786   1.50242133   4.23206492
 H  -1.60568808   2.51449599   5.51924441
 O  -3.95394057   0.54234848   2.53950918
 C  -2.34397520   0.49329180   5.55611234
 H  -2.65686426  -0.27806043   4.85050515
 H  -3.20179940   0.71541676   6.19379770
 C  -1.27610657  -0.08102570   6.44318772
 O  -1.40915606  -0.35703222   7.60838112
 O  -0.11538183  -0.28967605   5.77812896
 N  -2.20343781   1.71171486   1.62436891
 H  -1.39472826   2.24503114   1.90779622
 C  -1.86120642   0.77160561   0.57462718
 H  -2.54025788  -0.07788581   0.61497566
 C  -0.42030255   0.32742947   0.84319502
 C  -1.94323530   1.42036458  -0.80919894
 H  -1.43312562   0.79404368  -1.54719292
 H  -1.37784945   2.36204357  -0.77016703
 O   0.30403717   0.92501715   1.62567295
 C  -3.34140280   1.68777400  -1.28207844
 C  -4.51773693   1.66327706  -0.57992959
 H  -4.69404549   1.35338043   0.43489741
 C  -3.68784115   2.11472178  -2.61659759
 C  -5.05578994   2.41921379  -2.62311360
 C  -2.94086203   2.29426135  -3.77836760
 H  -1.87677194   2.06633011  -3.79336798
 N  -5.54594116   2.12422861  -1.37035073
 H  -6.50408008   2.20868411  -1.08510218
 C  -4.91933403   3.17248214  -4.87104838
 H  -5.36125854   3.63564195  -5.74563611
 C  -5.69199861   2.96014787  -3.74139775
 H  -6.74436880   3.22056563  -3.71753608
 C  -3.55524595   2.83864962  -4.89062445
 H  -2.96254939   3.06167914  -5.77347086
 N   0.00317029  -0.75738895   0.13584671
 H  -0.56323348  -1.02189791  -0.65322657
 C   1.43503009  -1.04356331   0.06261871
 H   1.83122659  -0.71266936   1.02164258
 C   2.05452039  -0.19816669  -1.05647464
 C   1.78688972  -2.53024098  -0.09606595
 H   2.86027167  -2.61203235   0.06524735
 O   2.36510466  -0.67220542  -2.15813279
 C   1.04091618  -3.45179551   0.84169955
 H   1.23896415  -3.18360690   1.88043302
 H   1.36860859  -4.48012887   0.68175301
 H  -0.03366201  -3.40457508   0.66923836
 O   1.58303837  -2.99141872  -1.49228979
 H   0.61962226  -3.10980409  -1.63315233
 N   2.16671883   1.11667017  -0.79087368
 H   2.11883740   1.42066268   0.17529517
 C   2.91507477   1.99509363  -1.64651124
 H   2.98757965   1.57200917  -2.64898445
 C   4.43290892   2.17427782  -1.06179573
 C   2.33397443   3.40229523  -1.68932528
 H   3.04310382   4.04888630  -2.21455681
 H   2.26020095   3.76849976  -0.66074893
 O   5.22730285   2.48158519  -1.95338717
 C   0.96773504   3.46791728  -2.35626847
 H   1.04728021   3.17529253  -3.40670058
 H   0.29781084   2.74960393  -1.87569493
 C   0.32313454   4.84194523  -2.26434610
 H   0.36359275   5.18965345  -1.22439065
 H   0.88356875   5.55303767  -2.87354068
 N  -1.05332298   4.78801737  -2.72661244
 H  -1.58728330   3.97726202  -2.45382387
 N  -1.12492384   7.11583887  -3.02374924
 H  -1.78480034   7.87445980  -3.11441161
 H  -0.45268149   7.25511271  -2.28527770
 N  -3.06557629   5.90818114  -3.29597632
 H  -3.44277951   4.96235979  -3.32085940
 C  -1.81895399   5.90594033  -2.99397983
 O   4.52686078   2.00215228   0.15906824
 H   0.49708659  -0.67557608   6.41731030
 H   1.90450912  -2.16626177  -2.01063946
