59
61
N         -3.68994        1.81501        2.03342
H         -4.13846        0.90774        2.15714
H         -4.26667        2.48772        2.53741
C         -3.70081        2.17039        0.60491
H         -4.71889        2.18383        0.18386
C         -2.90566        1.10227       -0.15921
C         -3.12556        3.60328        0.41742
H         -3.18359        3.87263       -0.64105
H         -3.80315        4.28763        0.94288
O         -2.09225        0.36062        0.43325
C         -1.71003        3.80405        0.90755
C         -1.46040        4.32482        2.18587
H         -2.29498        4.59481        2.82815
C         -0.62215        3.47865        0.08488
H         -0.78954        3.06635       -0.90604
C         -0.15035        4.51038        2.64071
H          0.02575        4.92608        3.62896
C          0.68653        3.67354        0.53246
H          1.51708        3.43705       -0.12602
C          0.92913        4.18493        1.81139
H          1.94756        4.34669        2.15288
N         -3.11458        0.94564       -1.47417
C         -2.36054       -0.09091       -2.20533
H         -2.54968       -1.06278       -1.73881
C         -0.85563        0.22946       -2.16744
C         -2.92887       -0.00654       -3.63984
H         -2.18077       -0.26768       -4.39239
H         -3.76773       -0.70371       -3.74174
O         -0.43738        1.37150       -2.34478
C         -3.41336        1.44640       -3.75016
H         -2.55880        2.10969       -3.91226
H         -4.14101        1.59908       -4.55082
C         -4.00924        1.71351       -2.36432
H         -5.03457        1.32987       -2.28230
H         -4.01348        2.77261       -2.10700
N         -0.05267       -0.84261       -1.97340
H         -0.46370       -1.74245       -1.76854
C          1.39215       -0.71251       -1.80928
H          1.78678       -0.15130       -2.66375
C          2.08879       -2.06937       -1.82619
C          1.77886        0.05411       -0.52121
H          1.46835        1.09274       -0.66212
H          2.87035        0.03346       -0.43681
O          3.28232       -2.19669       -1.70545
C          1.10935       -0.50646        0.73860
H          0.02840       -0.50433        0.57393
H          1.39835       -1.55458        0.89454
C          1.45753        0.30670        2.00102
H          1.64765        1.35545        1.73967
H          2.38532       -0.06493        2.44960
C          0.36921        0.27336        3.07596
H         -0.02247       -0.73631        3.22802
H          0.73561        0.65198        4.03392
N         -0.79554        1.14264        2.68061
H         -1.55997        1.14994        3.36186
H         -1.27009        0.85489        1.77792
H         -0.50911        2.12363        2.57009
O          1.23334       -3.11328       -1.95837
H          1.77327       -3.92706       -1.95663
