21
conf-14
 N  -4.28995116   0.09032905   4.06547409
 H  -5.10027450  -0.14952629   3.48987375
 H  -4.61761502   0.33433103   4.99902673
 H  -3.68893253  -0.73436880   4.13192226
 C  -3.50166403   1.19611835   3.46873703
 H  -4.17335513   2.01702075   3.22501946
 C  -2.81747927   0.67042630   2.20842411
 C  -2.44071699   1.67358624   4.46125627
 H  -2.94454055   1.91394970   5.40134753
 H  -1.77764381   0.82702474   4.64660669
 O  -2.12998725  -0.34521715   2.26544158
 C  -1.66227460   2.86546222   3.97748271
 C  -0.62172808   2.69637932   3.06299789
 H  -0.36884135   1.68650848   2.74390398
 C  -1.98638687   4.16035474   4.38530468
 H  -2.78299208   4.31254953   5.10321579
 C   0.06900577   3.78950000   2.55119499
 H   0.85207927   3.61801357   1.82284971
 C  -1.28527330   5.25530322   3.88655709
 H  -1.54897411   6.25234954   4.21931975
 C  -0.25227651   5.07455061   2.96781633
 H   0.28742725   5.93280039   2.58144767
 N  -3.00152483   1.32962741   1.03654923
 C  -2.33152983   0.82516407  -0.17295038
 H  -2.61454612  -0.21807950  -0.32493255
 C  -0.80477610   0.90237847  -0.03184334
 C  -2.81798076   1.76798963  -1.30230685
 H  -1.98422288   2.40877596  -1.60185616
 H  -3.16089077   1.21711503  -2.17734651
 O  -0.21674809   1.96144481   0.23582915
 C  -3.91798713   2.61498939  -0.65626079
 H  -3.99975136   3.60576767  -1.10318228
 H  -4.89019752   2.12336814  -0.73793928
 C  -3.49796045   2.68075791   0.80939048
 H  -4.32543311   2.93071486   1.47582915
 H  -2.68133280   3.39321082   0.94273233
 N  -0.15655822  -0.26878894  -0.23642434
 H  -0.67077111  -1.07063804  -0.54555087
 C   1.28083663  -0.34021339  -0.17168272
 H   1.60887715   0.54844387   0.38487578
 C   1.95120000  -0.20966311  -1.53060469
 C   1.76182940  -1.58289247   0.56642049
 H   2.84575759  -1.65405490   0.45419222
 H   1.33783194  -2.47541153   0.10033742
 O   3.09888156  -0.51302159  -1.73319699
 C   1.39597636  -1.53106892   2.04195331
 H   1.82593778  -0.61977449   2.47623163
 H   0.31565374  -1.45199613   2.16076132
 C   1.91623843  -2.73362505   2.81247875
 H   3.00093976  -2.81737542   2.68360208
 H   1.48159414  -3.65130649   2.40813288
 C   1.61196259  -2.65575006   4.29411087
 H   2.02917332  -1.72079867   4.69721238
 H   0.52775813  -2.61343406   4.43540344
 N   2.11061776  -3.85236646   4.97062670
 H   1.85503818  -3.83593079   5.95002134
 H   3.12338570  -3.86468101   4.94504190
 O   1.15869074   0.33248838  -2.47398686
 H   1.70424362   0.40995819  -3.26731249
