21
conf-34
 N  -4.42250302   2.30973841   3.56819662
 H  -5.35505221   1.89964234   3.50725407
 H  -4.40816454   3.07514513   4.24243609
 H  -3.77381017   1.56947209   3.85226653
 C  -3.94891987   2.76745097   2.25153932
 H  -4.78151393   3.18182061   1.68117854
 C  -3.36112732   1.56024545   1.53218194
 C  -2.86375464   3.83480639   2.40922704
 H  -2.05525035   3.41702772   3.01504956
 H  -2.43329241   4.05832973   1.42842975
 O  -2.92703108   0.61282450   2.16369842
 C  -3.39908573   5.08597802   3.05279408
 C  -4.28111841   5.92197248   2.36534373
 H  -4.55861930   5.67436811   1.34473106
 C  -3.07436362   5.40394334   4.36847306
 H  -2.40448033   4.75465268   4.92346567
 C  -4.80137300   7.06338535   2.96950675
 H  -5.47624443   7.70159355   2.41050486
 C  -3.60198355   6.53542662   4.98470066
 H  -3.33595086   6.75900882   6.01116060
 C  -4.46585449   7.37183896   4.28414490
 H  -4.87459034   8.25630215   4.75920380
 N  -3.27735813   1.61311407   0.17818250
 C  -2.48356652   0.59966789  -0.52278681
 H  -2.78890137  -0.40231956  -0.20780417
 C  -0.99816804   0.78259882  -0.21169054
 C  -2.80917021   0.88987404  -1.99556729
 H  -2.01670628   0.56696972  -2.67149211
 H  -3.72821319   0.36429808  -2.26120143
 O  -0.47671477   1.88184488  -0.07591464
 C  -3.03616915   2.40269972  -2.00724383
 H  -2.07698325   2.92314481  -1.96098035
 H  -3.58366731   2.74931796  -2.88211819
 C  -3.80667494   2.64367241  -0.70509036
 H  -4.88445588   2.52019777  -0.84853012
 H  -3.64044363   3.64523290  -0.30294744
 N  -0.29336011  -0.37490702  -0.11481972
 H  -0.70272035  -1.24693088  -0.40927510
 C   1.14074243  -0.34972278   0.04609224
 H   1.48700561   0.65080253  -0.22587465
 C   1.75675996  -1.35770376  -0.89741944
 C   1.59289418  -0.64432356   1.48245843
 H   2.68238173  -0.61371292   1.48981515
 H   1.30259803  -1.66058731   1.75797177
 O   1.15951510  -2.23109843  -1.47252893
 C   1.01893140   0.35259112   2.48135968
 H   1.23113439   1.36591572   2.13625213
 H  -0.06506069   0.25649657   2.50285354
 C   1.55416329   0.17371428   3.90090536
 H   1.41170767  -0.86786130   4.21198349
 H   0.95613538   0.78137002   4.58792432
 C   3.01536453   0.55272759   4.06928129
 H   3.34834229   0.27359328   5.07763429
 H   3.62468135  -0.02550401   3.36674253
 N   3.21585905   1.97604324   3.77255007
 H   4.19920429   2.21004443   3.83346619
 H   2.75053084   2.54198966   4.47404942
 O   3.08943055  -1.18481722  -1.00265472
 H   3.40091366  -1.87502906  -1.60203623
