21
conf-684
 N  -1.37937721  -0.52085446  -4.24116037
 H  -0.46821028  -0.58664198  -3.77482959
 H  -1.31967959   0.17202435  -4.98804743
 H  -1.62406380  -1.43066549  -4.64357122
 C  -2.40766709  -0.14600808  -3.25299451
 H  -2.01250260   0.67199755  -2.65040190
 C  -2.68508976  -1.35335970  -2.36723425
 C  -3.70906654   0.30454718  -3.92449186
 H  -3.47383434   1.12071043  -4.61297306
 H  -4.07964680  -0.53615675  -4.51232176
 O  -2.97913374  -2.43448043  -2.85914056
 C  -4.73194769   0.74288649  -2.90838741
 C  -5.56306435  -0.20190208  -2.30349484
 H  -5.48346548  -1.23991701  -2.60924685
 C  -4.81406397   2.07219072  -2.49617916
 H  -4.17459383   2.81771536  -2.95905108
 C  -6.46698084   0.17637186  -1.31174513
 H  -7.11805997  -0.56740760  -0.86658246
 C  -5.69263482   2.44405286  -1.48283360
 H  -5.72506191   3.47853067  -1.16355083
 C  -6.52750269   1.50175902  -0.89171900
 H  -7.22211305   1.79621715  -0.11455259
 N  -2.62127395  -1.17866611  -1.02925740
 C  -2.34430472   0.06889253  -0.35313347
 H  -2.94936838   0.87907372  -0.76170030
 C  -0.88320112   0.49680223  -0.50047856
 C  -2.73269217  -0.24131989   1.10067431
 H  -2.16982947   0.35708964   1.81552223
 H  -3.79450035  -0.01489152   1.21990379
 O  -0.56277130   1.67436177  -0.56676708
 C  -2.50351195  -1.74675287   1.23366108
 H  -1.43952951  -1.95283467   1.38609722
 H  -3.04962650  -2.19400668   2.06305854
 C  -2.94130822  -2.28929579  -0.12814376
 H  -4.01444373  -2.50768540  -0.15746824
 H  -2.41838467  -3.19571206  -0.44023686
 N   0.00911981  -0.52458657  -0.50370702
 H  -0.33740696  -1.46247357  -0.56930671
 C   1.43292152  -0.29970600  -0.49990639
 H   1.56439863   0.75537209  -0.24787896
 C   2.08090809  -0.45825115  -1.86354229
 C   2.14686418  -1.16349127   0.54321864
 H   1.72881115  -0.91097311   1.52213904
 H   3.19936888  -0.87073549   0.55477350
 O   3.24768052  -0.69491184  -2.03980702
 C   2.03223867  -2.65817138   0.30066473
 H   0.98091398  -2.95985904   0.28755436
 H   2.43876406  -2.90151857  -0.68552573
 C   2.75809933  -3.45614533   1.37014909
 H   2.35949571  -3.19300779   2.35539791
 H   3.81763975  -3.18016921   1.37656931
 C   2.63784668  -4.96070364   1.17503436
 H   1.58131242  -5.24020368   1.16559366
 H   3.04470530  -5.23233006   0.19793500
 N   3.30739313  -5.77756833   2.17926722
 H   2.94629059  -5.55986421   3.10126221
 H   4.29593056  -5.55416600   2.20512434
 O   1.22305247  -0.27113460  -2.89060768
 H   1.76036201  -0.32092009  -3.69675040
