21
conf-364
 N  -1.16443945   1.41494770   3.23070086
 H  -0.59867516   1.86463211   2.50041511
 H  -0.57045943   0.79040573   3.78022445
 H  -1.55048548   2.14077258   3.84499531
 C  -2.28836137   0.64983283   2.64109708
 H  -1.87623506  -0.05114214   1.92251949
 C  -3.20032753   1.65377729   1.95318332
 C  -3.03007734  -0.13331238   3.71659948
 H  -3.46375497   0.57727291   4.41834688
 H  -3.85807472  -0.67477105   3.25338618
 O  -3.91194010   2.39938289   2.60962904
 C  -2.11438928  -1.09458535   4.43029084
 C  -1.84134237  -0.93375046   5.78422416
 H  -2.30645514  -0.11636339   6.32438911
 C  -1.49734460  -2.13784809   3.74411405
 H  -1.69105512  -2.26102143   2.68385042
 C  -0.98260605  -1.80461103   6.45136277
 H  -0.78474327  -1.65987600   7.50711638
 C  -0.65404276  -3.02214236   4.40871751
 H  -0.20060761  -3.83748362   3.85941571
 C  -0.38916998  -2.85749352   5.76357257
 H   0.27211701  -3.54444063   6.27784179
 N  -3.11989497   1.75816167   0.60133512
 C  -2.32900143   0.95477284  -0.31432397
 H  -2.61665446  -0.10011855  -0.25086900
 C  -0.82091037   1.07524005  -0.06187763
 C  -2.66405029   1.55947646  -1.68883765
 H  -1.83295801   1.46077000  -2.38821444
 H  -3.53442568   1.04795507  -2.10162121
 O  -0.27301032   2.15037619   0.23698402
 C  -3.00189264   3.01471666  -1.36379927
 H  -2.08133506   3.57258017  -1.17201644
 H  -3.56436245   3.51266917  -2.15065473
 C  -3.78976419   2.88506097  -0.06217732
 H  -4.84835826   2.66458527  -0.23382261
 H  -3.73770222   3.76615953   0.57855000
 N  -0.17179225  -0.12842534  -0.19101648
 H  -0.68687162  -0.87171628  -0.63443651
 C   1.26549782  -0.17556804  -0.35008844
 H   1.63585636   0.82045320  -0.11180709
 C   1.70524299  -0.44980770  -1.77812431
 C   1.92905976  -1.17639521   0.60321332
 H   1.77183142  -0.82088081   1.62519467
 H   3.00622872  -1.13239087   0.41695732
 O   2.84872223  -0.37637723  -2.14359057
 C   1.44506823  -2.60957460   0.46766456
 H   0.38919415  -2.67746277   0.74425317
 H   1.51630825  -2.93210055  -0.57607310
 C   2.23303953  -3.56028878   1.35253059
 H   2.14301075  -3.24689747   2.39914470
 H   3.29578184  -3.51129657   1.10320477
 C   1.76514721  -4.99578780   1.23456045
 H   0.67891463  -5.03256060   1.41354185
 H   1.93387858  -5.34448774   0.21140757
 N   2.53180482  -5.84777486   2.14338232
 H   2.26309227  -6.81715474   2.02844359
 H   2.31156176  -5.60814606   3.10316540
 O   0.68965348  -0.79484096  -2.60110353
 H   1.08371491  -0.94984843  -3.47019238
