21
conf-245
 N  -4.63043484   3.95291801   1.38265607
 H  -5.21610921   3.27912994   0.88464272
 H  -5.09088241   4.86491668   1.36343080
 H  -4.55923338   3.65936202   2.36137385
 C  -3.26573351   4.05897437   0.80703258
 H  -3.35942795   4.37252709  -0.23838994
 C  -2.59998282   2.67051625   0.78668918
 C  -2.41577640   5.10511830   1.55353069
 H  -1.36607097   4.82671460   1.45606409
 H  -2.54977890   6.06044283   1.03659509
 O  -1.76777678   2.32032852   1.61027283
 C  -2.77997443   5.29209109   3.00650843
 C  -3.67525002   6.29609310   3.37134508
 H  -4.07950017   6.94628072   2.60303005
 C  -2.25807953   4.47333780   4.00743554
 H  -1.55793556   3.69236189   3.74003357
 C  -4.06483231   6.46481258   4.69476720
 H  -4.77029546   7.24638642   4.95308252
 C  -2.64205456   4.63692800   5.33604781
 H  -2.22818993   3.98505906   6.09630588
 C  -3.54848744   5.63366947   5.68287766
 H  -3.84839952   5.76237091   6.71651598
 N  -3.05776208   1.80411388  -0.16069176
 C  -2.43137480   0.48180318  -0.27115632
 H  -2.55216713  -0.05512060   0.67606560
 C  -0.94491248   0.60215258  -0.59318508
 C  -3.17928558  -0.19334552  -1.45232573
 H  -2.51687192  -0.22978478  -2.32036230
 H  -3.48604550  -1.21200807  -1.21391344
 O  -0.50972519   1.37299040  -1.42700374
 C  -4.35832186   0.73896773  -1.74534815
 H  -4.68340555   0.69575056  -2.78391680
 H  -5.21045003   0.50331279  -1.10534710
 C  -3.80181723   2.10903094  -1.37082560
 H  -4.56584048   2.86467658  -1.19564454
 H  -3.12026507   2.46677469  -2.15028767
 N  -0.13583376  -0.24314908   0.10742299
 H  -0.55099926  -1.06050545   0.51362476
 C   1.26141192  -0.34680665  -0.26874771
 H   1.62927775   0.66622830  -0.44541327
 C   1.38888607  -1.15313481  -1.54696108
 C   2.04979982  -1.00605560   0.86629803
 H   1.67756954  -2.02528276   1.00090354
 H   1.81264320  -0.45015026   1.77553670
 O   0.65887235  -2.05336269  -1.87785705
 C   3.55659430  -1.00745265   0.66524397
 H   3.82369882  -1.58292780  -0.22526335
 H   3.88479206   0.02057561   0.48157977
 C   4.28058710  -1.56501120   1.87903174
 H   3.95053015  -2.59656438   2.05037303
 H   3.98936733  -0.99132407   2.76713474
 C   5.80156369  -1.56170368   1.75469092
 H   6.23549096  -2.06272248   2.62345126
 H   6.10062054  -2.14486959   0.88001837
 N   6.44041368  -0.25289674   1.63749642
 H   6.15779020   0.35089358   2.40288766
 H   6.14814087   0.20930557   0.78482013
 O   2.46454674  -0.77054044  -2.26917908
 H   2.49010748  -1.35083362  -3.03957445
