21
conf-549
 N  -1.97733861   1.79447273   4.26005527
 H  -1.17769262   2.42252000   4.19632610
 H  -1.86608070   1.16564606   5.05188465
 H  -2.80947659   2.37401444   4.41441888
 C  -2.19908007   1.07116074   2.99445812
 H  -1.23473855   0.77895079   2.57799262
 C  -2.88375390   2.04976736   2.03903144
 C  -3.05755474  -0.18198610   3.22248280
 H  -3.36970374  -0.59176841   2.25604884
 H  -2.42801376  -0.93564752   3.70485350
 O  -3.40924207   3.06846076   2.45071114
 C  -4.26251921   0.08533681   4.07986983
 C  -4.24577244  -0.20337762   5.44386494
 H  -3.36901941  -0.67088120   5.87734523
 C  -5.40247387   0.67619861   3.53839217
 H  -5.42892467   0.89878118   2.47749959
 C  -5.33432582   0.10525431   6.25463117
 H  -5.29619732  -0.12257285   7.31376105
 C  -6.49527301   0.98858164   4.34380167
 H  -7.36858865   1.45099398   3.89941834
 C  -6.46309310   0.70600319   5.70660818
 H  -7.31258332   0.94954905   6.33419740
 N  -2.91218500   1.71627472   0.72070325
 C  -2.16565276   0.66079778   0.06009510
 H  -2.36788022  -0.31107789   0.51361263
 C  -0.66377666   0.89676722   0.09193290
 C  -2.69245321   0.74332524  -1.38559965
 H  -1.98188636   0.35249912  -2.11464534
 H  -3.61691436   0.16750001  -1.45148705
 O  -0.15052121   1.99772352   0.00367509
 C  -2.98334593   2.23375446  -1.56812124
 H  -2.05196881   2.78307601  -1.71958211
 H  -3.65206132   2.44044193  -2.40225608
 C  -3.59288313   2.62097971  -0.21901142
 H  -4.67552897   2.46202494  -0.19377050
 H  -3.40744548   3.65627403   0.07080506
 N   0.08817708  -0.24146968   0.20826962
 H  -0.35700071  -1.10472667  -0.04849050
 C   1.50980160  -0.16338808  -0.09869172
 H   1.91649433   0.70124952   0.42866540
 C   1.69045230   0.03425383  -1.58932962
 C   2.20411010  -1.44407319   0.36995551
 H   1.79271811  -2.28838477  -0.19037719
 H   1.93025066  -1.58642606   1.41732697
 O   0.94029288  -0.37801755  -2.43838554
 C   3.72003079  -1.41307654   0.25655352
 H   4.02464728  -1.31330436  -0.78858492
 H   4.09227873  -0.52544122   0.77587867
 C   4.35147392  -2.65903814   0.85608940
 H   3.96227635  -3.54065956   0.33251590
 H   4.04936524  -2.75332677   1.90424121
 C   5.86692883  -2.67992405   0.77224221
 H   6.22828171  -3.65775685   1.10268865
 H   6.16769721  -2.56287620  -0.27931095
 N   6.45993671  -1.66802143   1.65440044
 H   6.35420754  -0.74737726   1.24601696
 H   7.45777645  -1.82006430   1.72729918
 O   2.82941392   0.70137089  -1.87176579
 H   2.88256973   0.74790352  -2.83377359
