21
conf-197
 N  -3.39885120  -0.33581304   4.36286265
 H  -3.83851274  -1.17049018   3.97752975
 H  -3.81967037  -0.09923651   5.25934162
 H  -2.41732076  -0.55671381   4.52975303
 C  -3.47432857   0.79255097   3.41839996
 H  -4.52385014   0.97680490   3.17359798
 C  -2.76020318   0.41110531   2.12247318
 C  -2.87902574   2.06053050   4.03919472
 H  -2.81825688   2.84870199   3.28499239
 H  -3.57143596   2.40651200   4.81175709
 O  -1.97531733  -0.53278971   2.06148554
 C  -1.53316928   1.80981337   4.65781097
 C  -1.39773328   1.66242579   6.03749416
 H  -2.27385639   1.77056486   6.66783087
 C  -0.39881964   1.65498554   3.86331928
 H  -0.49574410   1.78940868   2.79161107
 C  -0.16068175   1.37258078   6.61018009
 H  -0.07582301   1.26386762   7.68471318
 C   0.83672390   1.36090447   4.42411299
 H   1.69232358   1.23871446   3.77657975
 C   0.96413891   1.22311488   5.80199123
 H   1.92733061   0.99825659   6.24431993
 N  -3.02954733   1.17643138   1.03312903
 C  -2.31530076   0.91215204  -0.22624985
 H  -2.55079143  -0.09740824  -0.57686021
 C  -0.81436707   1.03050915  -0.00895846
 C  -2.84199232   2.00035544  -1.18076774
 H  -2.16112611   2.85409587  -1.16053179
 H  -2.92249741   1.64465645  -2.20860212
 O  -0.31580078   1.99846667   0.56830367
 C  -4.18112139   2.39883004  -0.56711506
 H  -4.52049560   3.38334817  -0.88820113
 H  -4.95501091   1.66980036  -0.81297255
 C  -3.88469783   2.34796852   0.92828967
 H  -4.77580104   2.25875465   1.54877625
 H  -3.34232305   3.25130242   1.22619940
 N  -0.06403964   0.03140635  -0.51606685
 H  -0.49004947  -0.77210498  -0.94538768
 C   1.36087143  -0.00494048  -0.26571975
 H   1.75555188   1.00112386  -0.41268810
 C   2.00039993  -0.94638323  -1.25754321
 C   1.69096658  -0.44125064   1.17045773
 H   1.14543967   0.23812765   1.83196340
 H   2.75818706  -0.28194721   1.33988926
 O   1.41370831  -1.74704355  -1.93956524
 C   1.31763814  -1.88115967   1.48218363
 H   0.28875495  -2.07032832   1.17398751
 H   1.94697556  -2.56174361   0.90618592
 C   1.44841604  -2.17853781   2.96727391
 H   0.79497866  -1.49065222   3.52396472
 H   2.47592910  -1.96825061   3.28858444
 C   1.10775250  -3.60993582   3.33109704
 H   1.76348237  -4.28535971   2.77325759
 H   1.31335699  -3.77567803   4.39822108
 N  -0.27773301  -3.91699197   2.95715550
 H  -0.91812792  -3.34915604   3.50291777
 H  -0.49424530  -4.88069422   3.18088237
 O   3.34170764  -0.81512012  -1.26198912
 H   3.67292176  -1.45603530  -1.90392631
