21
conf-876
 N  -3.30765518   2.42121801   2.65451236
 H  -4.14184193   1.83399708   2.71472974
 H  -3.41573886   3.21228160   3.28730408
 H  -2.50704365   1.86027572   2.95469448
 C  -3.04853009   2.86645998   1.26901850
 H  -3.95798176   3.28389098   0.84174396
 C  -2.59626405   1.65080223   0.46282662
 C  -1.94985731   3.94047021   1.25588752
 H  -2.25690675   4.74516468   1.92843090
 H  -1.04489915   3.48295795   1.66063681
 O  -1.82305129   0.84270977   0.95980531
 C  -1.69166378   4.47251888  -0.13174594
 C  -2.40861765   5.55507916  -0.64021013
 H  -3.08909689   6.09996694   0.00739309
 C  -0.81481098   3.79594502  -0.97199569
 H  -0.23865670   2.96448361  -0.57826558
 C  -2.30062189   5.90430074  -1.98081652
 H  -2.89233260   6.72664289  -2.36499296
 C  -0.74027727   4.11485319  -2.32312606
 H  -0.13095644   3.49739484  -2.97120155
 C  -1.47996374   5.17561012  -2.83244865
 H  -1.42977978   5.42560450  -3.88592629
 N  -3.03079460   1.52429996  -0.81909286
 C  -2.51204764   0.43929045  -1.68586217
 H  -2.96649428  -0.51000227  -1.38596855
 C  -0.99583067   0.30533301  -1.61369031
 C  -2.96879900   0.88291857  -3.07546491
 H  -2.22928119   1.58570108  -3.47552570
 H  -3.06293424   0.04446990  -3.76508895
 O  -0.24715663   1.13265780  -2.13609652
 C  -4.27456959   1.61072534  -2.79551680
 H  -4.59060791   2.26176241  -3.61097333
 H  -5.07610886   0.89606057  -2.59967691
 C  -3.97487725   2.39254430  -1.51988819
 H  -4.87585639   2.56415849  -0.92580678
 H  -3.51308654   3.36315405  -1.74555960
 N  -0.52447718  -0.77382928  -0.95205063
 H  -1.12261093  -1.23873741  -0.28288229
 C   0.90543748  -0.94716005  -0.78110164
 H   1.40000323  -0.51716547  -1.65218477
 C   1.26324577  -2.41401088  -0.72687510
 C   1.42341239  -0.25088593   0.48335036
 H   0.88703448  -0.64599950   1.34776030
 H   1.16082933   0.80343003   0.39612437
 O   2.21540181  -2.91729395  -1.26332814
 C   2.93004173  -0.39256350   0.65878604
 H   3.19445626  -1.44644323   0.76236854
 H   3.41827050  -0.03925063  -0.25555169
 C   3.47730306   0.39169811   1.84644065
 H   3.17147930   1.44035421   1.75452385
 H   4.57179476   0.38810825   1.81101847
 C   3.02128156  -0.12954842   3.20785409
 H   3.36762991   0.55206682   3.98757250
 H   1.92812252  -0.12358652   3.25789032
 N   3.46383716  -1.47450417   3.57292832
 H   4.47315285  -1.54975536   3.49790268
 H   3.07716760  -2.16231322   2.93794327
 O   0.41055967  -3.11055997   0.05782621
 H   0.71525678  -4.02667757   0.05290457
