21
conf-883
 N  -3.67112329   4.12228420  -2.87177641
 H  -4.41970657   4.58598960  -2.35698914
 H  -3.81465531   4.23019696  -3.87566454
 H  -2.79980354   4.58023481  -2.60418782
 C  -3.61075968   2.69287240  -2.51691928
 H  -4.58584575   2.24646450  -2.73319439
 C  -3.31487546   2.56247658  -1.02054204
 C  -2.56570163   1.96617437  -3.35705577
 H  -1.58960423   2.41797445  -3.15571111
 H  -2.50827930   0.92254611  -3.03621229
 O  -3.03215815   3.52772007  -0.33965034
 C  -2.89281821   2.04568808  -4.82318154
 C  -3.90490179   1.25208196  -5.36069241
 H  -4.42255517   0.54938914  -4.71417949
 C  -2.24554539   2.95448124  -5.65607404
 H  -1.47051096   3.59358500  -5.24556223
 C  -4.25123907   1.34709751  -6.70550058
 H  -5.03668502   0.71323136  -7.10090793
 C  -2.59643958   3.06614461  -6.99962712
 H  -2.08315947   3.78375360  -7.62867381
 C  -3.59828317   2.25921280  -7.52915955
 H  -3.86832995   2.34119790  -8.57582305
 N  -3.32602681   1.29601414  -0.49640916
 C  -3.14760462   1.18405213   0.96183450
 H  -3.81465709   1.88067425   1.47939143
 C  -1.72784943   1.52133279   1.42214198
 C  -3.55704431  -0.26818784   1.25068447
 H  -2.70771673  -0.93535831   1.07961765
 H  -3.89567053  -0.39732149   2.27790351
 O  -1.51044882   1.97335729   2.53629552
 C  -4.62614470  -0.53110539   0.19321078
 H  -4.82554622  -1.59020203   0.03264331
 H  -5.56185208  -0.04021277   0.46539938
 C  -4.03154392   0.13977278  -1.04571599
 H  -4.78435657   0.43392583  -1.77648742
 H  -3.33143994  -0.54260597  -1.54076652
 N  -0.74646918   1.23519044   0.53236276
 H  -0.98677893   0.94104729  -0.39392561
 C   0.63578892   1.48204225   0.86549925
 H   0.70134772   2.44496649   1.37789615
 C   1.51484405   1.58406579  -0.36199344
 C   1.21369370   0.42544344   1.82313132
 H   0.64243414   0.48853946   2.74984395
 H   2.23931953   0.72057777   2.05537172
 O   2.65097472   1.98143567  -0.33690166
 C   1.18637226  -0.99691651   1.29070459
 H   0.16340987  -1.26363914   1.01507699
 H   1.78566350  -1.07602473   0.38300436
 C   1.69419908  -1.98784861   2.32652031
 H   1.07452443  -1.91300477   3.22755451
 H   2.71436797  -1.71500598   2.61850756
 C   1.68940437  -3.42132054   1.83342811
 H   1.94047326  -4.09812943   2.66213474
 H   0.67946035  -3.68361089   1.50412770
 N   2.58785089  -3.56526365   0.68225036
 H   2.54207251  -4.50920926   0.31954745
 H   3.54841044  -3.42446668   0.97650680
 O   0.91551218   1.15479463  -1.49542266
 H   1.56382977   1.24893760  -2.20464958
