21
conf-961
 N  -7.62282405  -4.08070017  -7.68680261
 H  -7.31603187  -4.93480131  -7.20866977
 H  -8.45839996  -3.73031851  -7.20840037
 H  -7.84778486  -4.29011414  -8.66077248
 C  -6.56810045  -3.04726606  -7.60122329
 H  -5.64987099  -3.41721310  -8.06924165
 C  -6.34219297  -2.75912816  -6.13234808
 C  -7.00136086  -1.78860943  -8.34761750
 H  -7.92491211  -1.42338837  -7.88049671
 O  -7.28165860  -2.46787310  -5.39849013
 C  -5.94702340  -0.70234145  -8.36791146
 H  -5.70467765  -0.36375097  -7.35856900
 H  -6.30375770   0.15335216  -8.94396771
 H  -5.03978332  -1.08745630  -8.83990719
 O  -7.27822246  -2.22454440  -9.68434470
 H  -7.59373899  -1.46652943  -10.18236091
 N  -5.06910527  -2.88110136  -5.69250319
 H  -4.29747105  -3.00376843  -6.33026094
 C  -4.73006118  -2.81382360  -4.29158285
 H  -5.53570431  -2.27566476  -3.79291567
 C  -3.38835843  -2.08744750  -4.17556443
 C  -4.61169277  -4.22094526  -3.67497111
 H  -3.76387832  -4.72835324  -4.14199966
 H  -4.38552254  -4.11412907  -2.61096406
 O  -2.54829541  -2.15196028  -5.05741514
 C  -5.86563099  -5.02672810  -3.87138909
 C  -6.95640986  -4.87482484  -3.01723127
 H  -6.87667554  -4.18312327  -2.18263049
 C  -5.98170463  -5.91150169  -4.94682160
 H  -5.14684443  -6.02485212  -5.63341740
 C  -8.14193795  -5.57553753  -3.23725916
 H  -8.97822095  -5.43690971  -2.56290734
 C  -7.15672017  -6.62251821  -5.15938122
 H  -7.22241307  -7.30269127  -6.00260440
 C  -8.24859637  -6.44824631  -4.31739567
 H  -9.16666972  -6.99609417  -4.49063041
 N  -3.17726404  -1.42940201  -3.01454886
 H  -3.83563273  -1.43608791  -2.25092451
 C  -1.92114286  -0.77199514  -2.73573128
 H  -1.10200964  -1.43842728  -3.02143332
 C  -1.89911465  -0.52788958  -1.22262201
 C  -1.77326810   0.53232844  -3.51767160
 H  -0.81211165   1.00141690  -3.30007524
 H  -2.57376185   1.22812299  -3.25340007
 H  -1.83467871   0.31595402  -4.58380429
 O  -2.90024265  -0.63638027  -0.53828497
 N  -0.70761976  -0.14073611  -0.71755125
 H   0.12620793  -0.11906525  -1.28514485
 C  -0.54036545   0.13884017   0.69922402
 H  -1.40614575   0.70657082   1.03457407
 C   0.75293671   0.93346458   0.82052251
 C  -0.46093136  -1.16218003   1.51782268
 H   0.31797618  -1.79318891   1.07908586
 H  -1.41234935  -1.67868615   1.39619728
 O   1.72936014   0.64956211   0.13839505
 C  -0.13599058  -0.95972416   3.00213728
 H  -0.07328233  -1.92610103   3.50734209
 H   0.83086080  -0.46986035   3.11308433
 C  -1.17305062  -0.12331062   3.68786685
 O  -1.30318938   1.07411316   3.54885079
 O  -1.98728824  -0.85276485   4.47495313
 N   0.76011448   1.94376794   1.72599661
 H  -0.00564290   1.99613023   2.39047715
 C   2.02119398   2.53107656   2.14146870
 H   2.63812850   2.60670502   1.24661299
 C   2.73246120   1.59789416   3.15654517
 C   1.79206440   3.89642149   2.76980365
 H   2.75053479   4.35802830   3.01582885
 H   1.22388147   3.78550869   3.69405897
 H   1.24615608   4.54231831   2.08306308
 O   2.15777566   1.25694623   4.21425815
 N   3.98584484   1.21976469   2.77022643
 H   4.41824869   1.72309753   2.01304747
 C   4.89172792   0.47714224   3.60880464
 H   4.40443600   0.35134401   4.57839416
 C   6.16733529   1.29843463   3.80162728
 C   5.24864537  -0.89242356   3.02334998
 H   5.87291156  -0.74602431   2.13741390
 H   5.86334481  -1.42534356   3.75501697
 O   6.47514134   2.22765168   3.08011338
 C   4.04424305  -1.75812650   2.64767607
 H   3.46425983  -1.22496687   1.88658074
 C   4.52034614  -3.07593624   2.04919157
 H   5.13146090  -3.62081108   2.77315453
 H   5.12200877  -2.90666036   1.15326468
 H   3.67566236  -3.71237714   1.77469274
 C   3.14013142  -2.00230807   3.84803553
 H   3.65756516  -2.60049763   4.60195523
 H   2.23494719  -2.53908809   3.54798257
 H   2.82372162  -1.07236177   4.31577192
 N   6.93123638   0.86684228   4.84466702
 H   6.85401689  -0.09700602   5.15269745
 C   8.29892973   1.28171979   4.98750943
 H   8.69484027   1.63634684   4.02332743
 C   9.07330776  -0.01124199   5.41231564
 C   8.52544929   2.36384286   6.04201147
 H   9.60661185   2.47538802   6.16007483
 H   8.12660545   2.03654837   7.00456348
 O   8.34897509  -1.02809785   5.53115807
 C   7.90343279   3.69341556   5.64485601
 H   6.82970232   3.58261535   5.50851563
 H   8.30640744   3.99970291   4.67281135
 C   8.18709382   4.77785427   6.66329547
 H   7.85151397   5.75448920   6.29730507
 H   9.26390453   4.83878574   6.83619591
 N   7.51330110   4.44246000   7.93656460
 H   6.60795523   4.00675149   7.83173842
 N   8.58073539   6.16194346   9.12284579
 H   8.95603206   6.35801384   10.04044192
 H   9.25688933   6.20576975   8.37436477
 N   6.92807498   4.88343007   10.15029257
 H   6.13155729   4.27160107   10.03379934
 H   6.78413248   5.63849964   10.80486297
 C   7.66678596   5.16713271   9.05073304
 O   10.28981310   0.08851812   5.56690066
 H  -2.63621739  -0.24333968   4.85578005
