21
conf-112
 N  -8.33500620  -3.16607524  -4.72315482
 H  -8.49937777  -2.98031086  -3.73308531
 H  -8.65965282  -2.36615085  -5.27212117
 H  -8.84753360  -4.00173543  -5.01178546
 C  -6.89982610  -3.36514325  -5.00326697
 H  -6.46550880  -4.03326337  -4.25113644
 C  -6.20275691  -2.01242825  -4.97483988
 C  -6.75063118  -4.02546819  -6.38258470
 H  -7.19138778  -3.35044865  -7.11851304
 O  -6.69134455  -1.03895375  -5.54655540
 C  -5.32048987  -4.34963022  -6.75565692
 H  -4.70741636  -3.44633598  -6.80946455
 H  -5.29919527  -4.84075541  -7.73030169
 H  -4.88378770  -5.02281152  -6.01240311
 O  -7.54992845  -5.20494906  -6.42316287
 H  -7.09102134  -5.88064017  -5.91961152
 N  -5.02298021  -1.95032522  -4.32144047
 H  -4.58224519  -2.74968242  -3.88814401
 C  -4.24202744  -0.73472088  -4.32497775
 H  -4.25817958  -0.31911363  -5.33931462
 C  -2.81846355  -1.12979921  -3.93387733
 C  -4.84021790   0.32339577  -3.37228435
 H  -5.92045484   0.30642075  -3.52364208
 H  -4.63429809   0.04294312  -2.33723496
 O  -2.58963847  -2.15947091  -3.32030556
 C  -4.29908769   1.68701697  -3.69862132
 C  -3.26428009   2.24721374  -2.96449314
 H  -2.88012720   1.72572466  -2.09067937
 C  -4.75967202   2.34629352  -4.83811832
 H  -5.56505667   1.89011660  -5.40835781
 C  -2.61995958   3.39426457  -3.41412004
 H  -1.73336715   3.71266100  -2.88265765
 C  -4.17571940   3.54301199  -5.23940145
 H  -4.54821260   4.05385635  -6.11908902
 C  -3.08741962   4.06450750  -4.53430287
 H  -2.61153598   4.97803781  -4.87264479
 N  -1.83647465  -0.27014360  -4.32312795
 H  -2.10066147   0.68556030  -4.53270368
 C  -0.49903340  -0.42205429  -3.76539088
 H  -0.38349163  -1.48254527  -3.55056888
 C  -0.43569887   0.37466812  -2.43896770
 C   0.55695032   0.05470468  -4.75107383
 H   1.54464093  -0.00037318  -4.28648177
 H   0.38185924   1.09628042  -5.02811016
 H   0.53839258  -0.56346094  -5.64880770
 O  -0.43823706   1.62502239  -2.46489220
 N  -0.51658724  -0.37948521  -1.30540934
 H  -0.49633824  -1.37775591  -1.40785727
 C  -0.22472033   0.20494800  -0.00792179
 H  -0.58552285   1.23508070  -0.05345062
 C   1.28575332   0.21919674   0.21880563
 C  -0.88653099  -0.52036584   1.14628045
 H  -0.44072310  -1.51021239   1.25845019
 H  -1.94473836  -0.64854800   0.92105936
 O   1.88171175  -0.71959052   0.73412180
 C  -0.70506474   0.28548368   2.43006771
 H   0.35900424   0.52280326   2.53144933
 H  -1.24699428   1.23041574   2.39755029
 C  -1.06731213  -0.46006317   3.66814225
 O  -0.94529755  -1.65298666   3.81757613
 O  -1.49676298   0.34985563   4.65371314
 N   1.91073307   1.34757223  -0.17957678
 H   1.37384391   2.04317041  -0.67124065
 C   3.21229843   1.67641828   0.37167496
 H   3.94327075   0.96159933  -0.01424406
 C   3.18112428   1.50405564   1.91670369
 C   3.58383574   3.11000691   0.01945351
 H   4.61175689   3.33288975   0.30769899
 H   2.91851279   3.77893157   0.56896562
 H   3.46678708   3.28170779  -1.04990876
 O   2.20091537   1.82606580   2.63845998
 N   4.35119071   0.99507847   2.39685734
 H   5.17576407   1.06165434   1.82823936
 C   4.57887507   0.80554138   3.80870994
 H   3.67918282   1.14942538   4.32015031
 C   5.76340806   1.67010514   4.22894155
 C   4.84565720  -0.65443556   4.16971153
 H   5.82213307  -0.95046649   3.77741780
 H   4.90676637  -0.72361633   5.25900921
 O   6.71508193   1.87519374   3.49789127
 C   3.77885832  -1.63162711   3.67002527
 H   3.77529708  -1.60516024   2.57879277
 C   4.12805841  -3.04968802   4.11052666
 H   4.15838803  -3.11119379   5.20144123
 H   5.10404629  -3.35134581   3.72309052
 H   3.38434447  -3.76449688   3.75050265
 C   2.39123422  -1.22770847   4.15864276
 H   2.35447903  -1.27915637   5.25068553
 H   1.61979214  -1.88744318   3.75260254
 H   2.14733274  -0.20860501   3.86280671
 N   5.71429758   2.13000228   5.50696072
 H   4.86648066   2.06585789   6.04630110
 C   6.77087632   2.95959516   6.03248160
 H   7.73113514   2.50652852   5.78394252
 C   6.56486606   2.96956611   7.57842970
 C   6.70384097   4.39628305   5.54566349
 H   5.68693004   4.75735436   5.71391678
 H   6.88950596   4.42830163   4.47433974
 O   7.37972246   2.33919471   8.25788275
 C   7.69676995   5.25832030   6.33382297
 H   8.63232710   5.34478397   5.77507981
 H   7.94426728   4.76677311   7.27514579
 C   7.14645773   6.64569695   6.63722905
 H   6.86547517   7.16216073   5.71370998
 H   7.90751581   7.25643845   7.13433163
 N   5.97028632   6.50313705   7.51065336
 H   5.76377609   5.57082989   7.86187771
 N   5.59900156   8.79072632   7.64635114
 H   4.93448029   9.52818575   7.81380411
 H   6.21318489   8.92653710   6.86017519
 N   4.24195211   7.29148264   8.84151205
 H   3.86239743   6.35370640   8.87803954
 H   3.56890567   8.02919218   8.97725159
 C   5.25977652   7.52323842   7.97335467
 O   5.56830845   3.62423550   7.95668662
 H  -1.67180772  -0.22688830   5.41046231
