21
conf-234
 N  -8.14212176  -2.16998435  -5.60902691
 H  -8.37630587  -3.02267622  -5.10020773
 H  -8.45145651  -1.35602757  -5.06935880
 H  -8.63475792  -2.16663511  -6.49955207
 C  -6.68068804  -2.01472945  -5.80416556
 H  -6.36200715  -2.65674975  -6.63299598
 C  -5.94593122  -2.44552987  -4.53432728
 C  -6.35315887  -0.55489110  -6.12321101
 H  -5.26567814  -0.43419389  -6.10208897
 O  -5.63078601  -1.63762773  -3.65563710
 C  -6.88155887  -0.10543822  -7.46425052
 H  -6.46983720  -0.71368436  -8.27472241
 H  -6.60555082   0.93627930  -7.63561822
 H  -7.96982033  -0.16867318  -7.50153217
 O  -6.93807521   0.28734368  -5.13142011
 H  -6.49066771   0.05972118  -4.30738989
 N  -5.71470406  -3.76528255  -4.40071912
 H  -6.04754542  -4.40825081  -5.10014664
 C  -5.26276526  -4.33462424  -3.13696446
 H  -5.72970151  -3.74527409  -2.34364184
 C  -3.73228452  -4.21719122  -3.03140444
 C  -5.69399364  -5.80123711  -3.03255923
 H  -5.15888847  -6.38208977  -3.78253763
 H  -5.37204041  -6.17403463  -2.05805901
 O  -2.98603332  -5.17382438  -3.18905255
 C  -7.17443780  -5.96466996  -3.21450184
 C  -7.68479214  -6.55569734  -4.36678224
 H  -7.00012912  -6.94096992  -5.11601393
 C  -8.06363452  -5.46919388  -2.26267101
 H  -7.66686178  -5.00162833  -1.36808185
 C  -9.05909010  -6.65670234  -4.56781891
 H  -9.43822073  -7.11926373  -5.47138206
 C  -9.43908576  -5.57595081  -2.45268855
 H  -10.11387048  -5.18977899  -1.69785293
 C  -9.93986511  -6.16471329  -3.60998280
 H  -11.01002671  -6.24319207  -3.76217385
 N  -3.25337318  -2.97873502  -2.76886040
 H  -3.86081880  -2.16822792  -2.71827662
 C  -1.83188211  -2.77466084  -2.62148599
 H  -1.41701236  -3.64822131  -2.11374908
 C  -1.62251991  -1.52362486  -1.76325721
 C  -1.13399805  -2.63116087  -3.97447966
 H  -0.06326156  -2.46960543  -3.83830830
 H  -1.54914816  -1.78477268  -4.52756462
 H  -1.28129078  -3.53944086  -4.55655069
 O  -2.45525104  -0.63972026  -1.69116278
 N  -0.42704806  -1.44761823  -1.13839318
 H   0.28818036  -2.15171158  -1.23339888
 C  -0.05605214  -0.27963372  -0.36827360
 H  -0.37915029   0.61009638  -0.91739339
 C   1.47000486  -0.33745590  -0.24489605
 C  -0.74887482  -0.27400848   1.00293790
 H  -0.33879732  -1.07546253   1.61526424
 H  -1.79558567  -0.51682351   0.82086974
 O   2.08496484  -1.38096787  -0.37047163
 C  -0.64992855   1.05515321   1.74336319
 H   0.38737591   1.33798627   1.94000438
 H  -1.09426764   1.86732021   1.16146887
 C  -1.33744596   1.00737925   3.08265810
 O  -1.62580984   0.01025242   3.69331764
 O  -1.57594685   2.24971209   3.56499202
 N   2.07600207   0.83082602   0.05682385
 H   1.58050775   1.70080399   0.17389263
 C   3.48936932   0.89950151   0.34687526
 H   3.75895141   0.04845211   0.97830207
 C   3.67814366   2.21282069   1.11247977
 C   4.33660591   0.84826942  -0.92220275
 H   5.39904679   0.89403355  -0.67786124
 H   4.09132845   1.68371548  -1.58289052
 H   4.12963038  -0.08450734  -1.44555962
 O   2.81962135   3.07985534   1.11354585
 N   4.85876346   2.35613962   1.74600164
 H   5.58772322   1.65945539   1.71536759
 C   5.18922815   3.58459638   2.43300569
 H   4.85936974   4.41961038   1.80815599
 C   6.71105197   3.59050299   2.57767154
 C   4.47543056   3.68053616   3.78613918
 H   3.42661918   3.43931424   3.59703815
 H   4.86683085   2.89597291   4.44030595
 O   7.36628080   2.56625406   2.51394552
 C   4.53839666   5.03383407   4.50049052
 H   5.57126290   5.24881227   4.78608052
 C   4.03976728   6.16129936   3.60155516
 H   3.06172529   5.90498434   3.17891900
 H   4.72807117   6.36126304   2.77568137
 H   3.93659417   7.09029251   4.16772594
 C   3.71093994   4.95644807   5.78190862
 H   2.66062830   4.77427164   5.54399177
 H   3.77536162   5.88796598   6.34823613
 H   4.05991326   4.14700594   6.42711268
 N   7.26200630   4.79866742   2.81832508
 H   6.75562978   5.63944078   3.04511421
 C   8.65086936   4.95379562   3.15462599
 H   8.96675642   4.17977925   3.86295455
 C   8.69873405   6.34491450   3.84484705
 C   9.55181954   4.88952907   1.92114637
 H   9.22793448   5.63987502   1.19281831
 H   9.36721423   3.91495432   1.46709830
 O   9.73759402   6.64270714   4.44007590
 C   11.04810461   5.05015221   2.23935758
 H   11.61509077   4.29755312   1.68782429
 H   11.22004229   4.85988657   3.29748569
 C   11.59211542   6.43141092   1.88544027
 H   11.03690506   7.21245842   2.40295341
 H   11.46674951   6.60828983   0.81613306
 N   13.03322358   6.59588062   2.15393433
 H   13.65589600   6.20222859   1.46394499
 N   12.73410160   6.88401139   4.44718240
 H   13.10751361   6.76027325   5.37548244
 H   11.73820468   6.72075442   4.35496532
 N   14.88994915   6.65494586   3.54720600
 H   15.43168581   6.90496289   2.72819490
 H   15.24749449   7.06730725   4.39900276
 C   13.53599897   6.71222093   3.39157280
 O   7.66218604   7.02545731   3.73878373
 H  -1.99031199   2.12409246   4.42901607
