21
conf-35
 N  -8.19685101  -4.08364805  -4.38209457
 H  -8.24917696  -3.88972009  -3.37627596
 H  -8.81606427  -3.42523860  -4.86683358
 H  -8.49867847  -5.04111359  -4.57334484
 C  -6.81805379  -3.86617552  -4.86959600
 H  -6.12375791  -4.48812099  -4.29137875
 C  -6.49863924  -2.39610783  -4.67517168
 C  -6.71839818  -4.27971505  -6.34308860
 H  -7.43205634  -3.67780739  -6.90835126
 O  -7.26085635  -1.52827569  -5.08775325
 C  -5.32450496  -4.14088076  -6.91894039
 H  -4.96699655  -3.10925115  -6.86959933
 H  -5.32754972  -4.45846485  -7.96368051
 H  -4.63154024  -4.77690608  -6.36102989
 O  -7.17403796  -5.62443926  -6.47676523
 H  -6.47088227  -6.19586353  -6.16101754
 N  -5.35904006  -2.12071374  -4.00108569
 H  -4.68899308  -2.83854807  -3.76945755
 C  -5.02815064  -0.78402022  -3.56902575
 H  -5.56466426  -0.09112357  -4.21493978
 C  -3.51690979  -0.63528506  -3.68974209
 C  -5.45695922  -0.54124000  -2.10792255
 H  -4.85306247  -1.18845550  -1.46137581
 H  -5.21908912   0.49165569  -1.84241519
 O  -2.77847011  -1.60600535  -3.55979421
 C  -6.91838152  -0.82161572  -1.88944261
 C  -7.88643609   0.13431732  -2.19221430
 H  -7.56856068   1.10525884  -2.56306878
 C  -7.34034864  -2.06840017  -1.41930889
 H  -6.59740173  -2.83008534  -1.19747936
 C  -9.24430282  -0.15002058  -2.04798844
 H  -9.97835189   0.60710085  -2.29561820
 C  -8.69226248  -2.34816857  -1.25866470
 H  -8.99430134  -3.32343643  -0.89060564
 C  -9.65249561  -1.39878102  -1.58652651
 H  -10.70581638  -1.62237630  -1.46969977
 N  -3.05709187   0.61778242  -3.89010511
 H  -3.70161265   1.38582170  -3.86130250
 C  -1.63286484   0.93850619  -3.91579609
 H  -1.14394732   0.11111499  -4.43726143
 C  -1.10337536   0.99854975  -2.47829668
 C  -1.42072991   2.24810805  -4.64655868
 H  -0.36186488   2.51141235  -4.65513594
 H  -1.96606506   3.05175690  -4.14873693
 H  -1.77267886   2.15412965  -5.67568744
 O  -0.87004786   2.06002641  -1.89885890
 N  -0.93504654  -0.19721843  -1.87317336
 H  -1.27037832  -1.02800645  -2.35141124
 C  -0.69041616  -0.27063194  -0.44065863
 H  -1.15032704   0.62294551  -0.00220753
 C   0.82096796  -0.22862963  -0.20019070
 C  -1.33006107  -1.52543586   0.13690383
 H  -0.78922086  -2.40353274  -0.21497921
 H  -2.34401113  -1.58324831  -0.26801560
 O   1.47023883  -1.21149522   0.13070112
 C  -1.38134746  -1.52222108   1.66233359
 H  -0.36877526  -1.49776814   2.07279387
 H  -1.89732633  -0.63871116   2.04036321
 C  -2.06218966  -2.74948171   2.20858682
 O  -2.25786908  -3.77470384   1.60741212
 O  -2.41860300  -2.58768648   3.50361811
 N   1.40082848   0.97536325  -0.40310147
 H   0.86971273   1.75963729  -0.76468891
 C   2.82252631   1.13057223  -0.21155386
 H   3.11131537   0.50371545   0.63312076
 C   3.10710716   2.60384072   0.10164381
 C   3.61227250   0.67968075  -1.44139773
 H   4.68255333   0.82462825  -1.27990777
 H   3.30817163   1.25998194  -2.31579437
 H   3.42459361  -0.37527927  -1.63325530
 O   2.42126100   3.50287134  -0.35447610
 N   4.19468733   2.81438088   0.88985085
 H   4.86360272   2.07065247   1.01695389
 C   4.76478116   4.12998839   1.05765822
 H   4.34292463   4.79610790   0.30087570
 C   6.27131111   3.99752824   0.83160326
 C   4.50977525   4.73170696   2.44169087
 H   4.93736320   4.05961002   3.18972286
 H   5.06619893   5.67205942   2.51384146
 O   6.83728638   2.91975013   0.81494049
 C   3.04552728   4.99796977   2.79275844
 H   2.48781553   4.06843746   2.67599655
 C   2.94761977   5.42640150   4.25422573
 H   3.51071082   6.34850033   4.41930299
 H   3.35107538   4.65577114   4.91457458
 H   1.90924411   5.60611393   4.54235081
 C   2.42543296   6.05429942   1.88179286
 H   2.96210779   7.00186210   1.98466876
 H   1.38189345   6.22728382   2.15683010
 H   2.45006452   5.75407672   0.83416364
 N   6.90847521   5.18842520   0.67169430
 H   6.49054950   6.02948959   1.05464730
 C   8.33574671   5.29286905   0.79348340
 H   8.73650799   4.43748374   1.35925926
 C   8.57651559   6.60430279   1.61369037
 C   9.07707094   5.39589632  -0.53784744
 H   10.12083206   5.62626102  -0.30877671
 H   8.68206007   6.22961693  -1.12182171
 O   9.74046789   6.89914789   1.88042435
 C   8.99298873   4.10977872  -1.34493663
 H   7.95481005   3.86706587  -1.56276550
 H   9.38174438   3.28296631  -0.73977774
 C   9.78668832   4.19647308  -2.63274053
 H   9.81760202   3.22224219  -3.13383146
 H   10.81443372   4.48608381  -2.40618427
 N   9.17946711   5.21765852  -3.51482540
 H   8.16975994   5.22153533  -3.50470104
 N   10.99363410   5.23211801  -4.98448320
 H   11.27320984   5.25441196  -5.95299718
 H   11.40660040   4.49135880  -4.43909930
 N   8.98428924   6.29448581  -5.56779913
 H   8.21328295   6.81457329  -5.16703239
 H   9.51636039   6.83124468  -6.23847064
 C   9.72119971   5.56593849  -4.68936336
 O   7.52310189   7.20749764   1.92650883
 H  -2.82164656  -3.42338984   3.77401915
