102
104
N         -1.29557        2.63612        1.68020
H         -0.86514        4.16266        0.60779
H         -0.71342        2.01311        1.11724
H         -0.70497        2.86910        2.47854
C         -2.44914        1.85581        2.14791
H         -2.83108        2.33727        3.05579
C         -1.99941        0.42332        2.50060
C         -3.58468        1.88415        1.08400
H         -3.57798        2.92240        0.73102
O         -0.90119       -0.00879        2.14665
C         -3.30266        0.95941       -0.10451
H         -3.43953       -0.08845        0.17425
H         -3.99176        1.17078       -0.92892
H         -2.28461        1.04876       -0.48599
C         -4.97676        1.60708        1.66893
H         -5.11457        0.55299        1.93980
H         -5.17808        2.22431        2.55270
H         -5.74635        1.83865        0.92531
N         -2.87261       -0.34486        3.19843
H         -3.80600       -0.00204        3.37817
C         -2.58770       -1.73241        3.54757
H         -1.78298       -1.78160        4.28750
C         -2.06347       -2.55881        2.35734
C         -3.85411       -2.34259        4.14894
H         -4.04839       -1.88629        5.13029
H         -3.69811       -3.41931        4.29261
O         -1.05611       -3.25900        2.48235
O         -4.92155       -2.07231        3.24182
H         -5.72867       -2.49592        3.57041
N         -2.78257       -2.47992        1.21641
H         -3.63074       -1.92908        1.22533
C         -2.32761       -3.05069       -0.05660
H         -1.92219       -4.04411        0.16142
C         -1.19043       -2.14916       -0.58516
C         -3.48343       -3.14271       -1.04059
H         -3.14962       -3.61491       -1.96813
H         -3.85343       -2.14571       -1.29557
H         -4.29716       -3.73913       -0.61776
O         -1.36727       -1.27621       -1.43085
N          0.01196       -2.36665        0.02141
H         -0.03113       -2.92101        0.87783
C          0.99886       -1.29243       -0.00542
H          0.45596       -0.34459        0.01606
C          1.81965       -1.33481       -1.30000
C          1.88335       -1.36377        1.23923
H          1.21308       -1.29444        2.10195
H          2.34799       -2.35974        1.28808
O          2.80233       -2.09339       -1.47080
C          2.95735       -0.26490        1.33045
H          3.62416       -0.34201        0.46185
C          2.34457        1.14224        1.28570
H          1.54379        1.23847        2.02758
H          3.10747        1.89873        1.49567
H          1.94011        1.37228        0.29639
C          3.78601       -0.46079        2.60652
H          3.16173       -0.34700        3.50052
H          4.59679        0.27247        2.66906
H          4.23401       -1.46520        2.66327
N          1.42483       -0.47089       -2.23437
H          0.57540        0.04872       -2.03903
C          2.22152       -0.04943       -3.36817
H          2.30777       -0.86924       -4.09146
C          3.63289        0.32799       -2.88372
C          1.52925        1.16884       -4.05745
H          0.68013        0.78614       -4.63360
H          2.24087        1.59210       -4.77472
O          3.85433        0.74432       -1.75214
C          1.05442        2.20098       -3.06291
C         -0.27301        2.18265       -2.61554
H         -0.99171        1.51104       -3.08133
C          1.93704        3.11410       -2.46673
H          2.96832        3.16257       -2.80234
C         -0.69598        3.00884       -1.57581
H         -1.73276        3.00668       -1.26049
C          1.53067        3.93456       -1.42104
H          2.22419        4.61810       -0.94264
O         -0.13146        4.62116        0.12827
C          0.21558        3.86180       -0.93896
N          4.60885        0.17744       -3.81973
H          4.37911       -0.15465       -4.74599
C          6.00442        0.42086       -3.49498
H          6.00085        1.12947       -2.66116
C          6.77665        1.06824       -4.63330
C          6.74582       -0.86108       -3.03400
H          6.95453       -1.50272       -3.90055
H          7.71449       -0.55514       -2.62598
O          7.94370        1.36679       -4.55325
C          5.91046       -1.63347       -2.01251
H          5.00147       -1.98878       -2.50640
H          5.56907       -0.93605       -1.24015
C          6.62587       -2.82180       -1.36316
H          7.20849       -3.38137       -2.10517
H          7.34337       -2.47869       -0.60633
C          5.64718       -3.81774       -0.74195
H          6.15974       -4.55903       -0.12442
H          5.07103       -4.33811       -1.51098
N          4.61632       -3.13074        0.12733
H          4.15379       -3.80167        0.74600
H          5.03289       -2.41027        0.72500
H          3.83391       -2.66345       -0.46426
O          6.03264        1.23779       -5.75109
H          6.62162        1.63890       -6.41916
