119
121
N         -0.17475       -4.05310       -4.23291
H         -0.65332       -3.61960       -5.02888
H          0.44072       -3.28257       -3.76678
H          0.41033       -4.83402       -4.55938
C         -1.17888       -4.56915       -3.23265
H         -1.86309       -5.22022       -3.78261
C         -2.00775       -3.33171       -2.83326
C         -0.46179       -5.35852       -2.12773
H         -1.23844       -5.77356       -1.47259
H          0.14293       -4.67833       -1.52372
O         -2.78870       -2.86779       -3.66827
C          0.43492       -6.42413       -2.68579
C          0.32393       -7.28335       -3.76267
H         -0.51558       -7.40182       -4.43781
N          1.67529       -6.69948       -2.14335
H          2.09257       -6.22610       -1.34354
C          2.23234       -7.69385       -2.89364
H          3.20924       -8.10279       -2.67346
N          1.44767       -8.06773       -3.88338
N         -1.78606       -2.80813       -1.61278
H         -0.92352       -3.05080       -1.12874
C         -2.41062       -1.54964       -1.19967
H         -3.43445       -1.55189       -1.58366
C         -1.58170       -0.41913       -1.83417
C         -2.44872       -1.45242        0.32808
H         -1.40836       -1.46411        0.69206
O         -0.62336        0.08308       -1.22245
C         -3.12827       -0.16356        0.79020
H         -2.56797        0.71570        0.45961
H         -3.17811       -0.13700        1.88529
H         -4.15155       -0.11033        0.40315
O         -3.14932       -2.61328        0.75996
H         -3.27271       -2.54997        1.71958
N         -1.91657       -0.10184       -3.09795
H         -2.65160       -0.67060       -3.50804
C         -0.99141        0.52011       -4.07011
H          0.00092        0.09868       -3.86350
C         -0.84645        2.05955       -3.92406
C         -1.43789        0.14699       -5.49245
H         -2.23559        0.83462       -5.79139
H         -1.86686       -0.86521       -5.47370
O         -0.86757        2.80223       -4.89570
C         -0.30450        0.17872       -6.53839
H          0.29945        1.07414       -6.35086
C          0.59766       -1.06012       -6.42567
H          0.02161       -1.96739       -6.67068
H          1.02439       -1.18202       -5.42486
H          1.42691       -1.00714       -7.13983
C         -0.89421        0.29482       -7.94964
H         -1.56218       -0.54957       -8.16735
H         -0.10333        0.29722       -8.70804
H         -1.47093        1.21960       -8.05851
N         -0.62616        2.49247       -2.64852
H         -0.52342        1.77390       -1.93190
C         -0.10189        3.82530       -2.36420
H          0.19356        4.25970       -3.32341
C          1.19737        3.57443       -1.58439
C         -1.13917        4.72560       -1.68716
H         -0.71092        5.69799       -1.41629
H         -1.55750        4.25407       -0.78879
H         -1.96828        4.89548       -2.37889
O          2.18120        3.08299       -2.14605
N          1.16983        3.78216       -0.24018
H          0.38537        4.26586        0.17422
C          2.31941        3.48703        0.61772
H          3.22111        3.73221        0.04557
C          2.30834        1.96838        0.90803
C          2.26652        4.32354        1.90649
H          1.45525        3.94089        2.53668
H          3.20425        4.14572        2.45151
O          1.98734        1.49228        2.02261
C          2.07704        5.79713        1.63068
C          3.11239        6.56510        1.07574
H          4.08252        6.10838        0.89115
C          0.84231        6.41522        1.85201
H          0.02478        5.84830        2.29438
C          2.92490        7.90213        0.75175
H          3.72468        8.49891        0.32595
C          0.63518        7.75762        1.52929
H         -0.33106        8.22142        1.71525
O          1.56028        9.81784        0.63579
H          0.66723       10.13544        0.84256
C          1.67913        8.50670        0.97588
N          2.57026        1.20119       -0.14581
H          2.73958        1.68986       -1.02912
C          2.27473       -0.22358       -0.17468
H          1.26200       -0.36497        0.21303
C          3.27307       -1.01115        0.69306
C          2.30292       -0.68850       -1.64473
H          3.33033       -0.90612       -1.96424
H          1.94503        0.12525       -2.28057
O          4.39376       -0.59494        0.97027
C          1.43217       -1.90086       -1.96730
O          1.07109       -2.69335       -1.03492
O          1.13009       -2.04044       -3.18007
N          2.78777       -2.21679        1.10080
H          1.85836       -2.44626        0.76147
C          3.64025       -3.28086        1.61755
H          4.65881       -3.04913        1.27708
C          3.31144       -4.65643        0.99063
C          3.67351       -3.38041        3.15561
H          4.22255       -4.29340        3.39946
H          2.65250       -3.51483        3.53639
O          3.70126       -5.68399        1.48564
C          4.35549       -2.17483        3.82690
H          4.75251       -2.48089        4.80182
H          5.21726       -1.88135        3.21578
C          3.43791       -0.95035        4.02898
H          2.72428       -0.85598        3.20794
H          2.85504       -1.07220        4.95334
C          4.26802        0.32467        4.09091
H          4.79502        0.47099        3.14533
H          4.98230        0.32196        4.91913
N          3.37027        1.53414        4.26485
H          3.90884        2.39661        4.38524
H          2.76184        1.43038        5.08250
H          2.75555        1.63938        3.39363
O          2.62598       -4.68530       -0.17579
H          2.24808       -3.82355       -0.48901
