102
104
N          6.64653        1.90020        5.46863
H          6.38486        1.77432        6.44840
H          5.78342        1.74773        4.88747
H          6.86135        2.90947        5.31455
C          7.75520        1.00152        5.00606
H          8.59504        1.10009        5.69357
H          7.38447       -0.02386        4.98655
C          8.19656        1.51218        3.62975
O          8.99752        2.44569        3.56173
N          7.58319        0.95288        2.56909
H          6.88814        0.22648        2.72046
C          7.69612        1.53173        1.23335
H          7.38123        0.78815        0.50371
H          8.73835        1.81367        1.05946
C          6.76776        2.74951        1.09767
O          5.76086        2.72856        0.39732
N          7.15206        3.82249        1.84603
H          7.95455        3.70511        2.46275
C          6.21157        4.86559        2.18558
H          6.66671        5.85504        2.05330
H          5.36123        4.78518        1.50567
C          5.80818        4.73379        3.65445
O          6.65309        4.46627        4.51504
N          4.51285        4.97947        3.95352
H          3.85730        5.10973        3.19558
C          4.01566        4.94464        5.32139
H          4.86055        5.13916        5.98166
H          3.27267        5.73861        5.44736
C          3.42160        3.58165        5.71763
O          4.08338        2.73223        6.31758
N          2.12547        3.42127        5.36632
H          1.67317        4.11062        4.77913
C          1.35435        2.22569        5.61856
H          2.00944        1.42528        5.95719
H          0.62515        2.40037        6.42183
C          0.58462        1.82610        4.36061
O          0.47256        2.59798        3.40674
N         -0.00949        0.60770        4.43101
H          0.34958       -0.04233        5.13022
C         -0.81851        0.10510        3.35151
H         -1.78560       -0.25350        3.72752
H         -1.01268        0.94135        2.67218
C         -0.14435       -1.02726        2.57383
O          0.96296       -1.49011        2.88677
N         -0.84097       -1.50802        1.52074
H         -1.64159       -0.97513        1.20561
C         -0.18307       -2.35728        0.52760
H          0.16335       -3.28438        0.98275
H         -0.91314       -2.59415       -0.24884
C          0.97728       -1.57367       -0.08860
O          0.77765       -0.44672       -0.55756
N          2.18721       -2.15570       -0.00872
H          2.27769       -3.02600        0.51874
C          3.39102       -1.45800       -0.43365
H          3.20473       -0.97920       -1.40069
H          4.19515       -2.18478       -0.54983
C          3.84398       -0.38718        0.56924
O          4.96890       -0.41426        1.10704
N          2.93869        0.55651        0.85285
H          2.07063        0.54219        0.31362
C          3.21283        1.65115        1.76974
H          3.92737        2.34738        1.32724
H          2.26559        2.15613        1.98201
C          3.81818        1.17982        3.08514
O          4.78895        1.79483        3.55561
N          3.23043        0.14434        3.70500
H          2.46122       -0.35135        3.25371
C          3.81147       -0.44656        4.90268
H          4.71859       -1.00297        4.64492
H          4.07286        0.36117        5.59398
C          2.79692       -1.32930        5.62409
O          1.74657       -0.87242        6.09162
N          3.15698       -2.62059        5.75087
H          3.93953       -2.98178        5.21180
C          2.31858       -3.60313        6.41721
H          1.51308       -3.06149        6.91932
H          2.89749       -4.15898        7.15722
C          1.75173       -4.62713        5.43409
O          1.87771       -5.83601        5.62680
N          1.10412       -4.11482        4.35372
H          1.19449       -3.12867        4.12573
C          0.72390       -4.99753        3.25951
H          0.31876       -5.91900        3.68306
H         -0.04203       -4.51170        2.65683
C          1.95924       -5.28004        2.40113
O          2.20518       -4.66926        1.35722
N          2.79061       -6.21814        2.92245
H          2.58426       -6.49596        3.88233
C          4.16756       -6.26292        2.49806
H          4.20522       -6.14465        1.41111
H          4.60155       -7.23481        2.75193
C          4.98132       -5.13562        3.14984
O          4.46418       -4.30158        3.89221
N          6.30443       -5.10643        2.86621
H          6.67126       -5.69452        2.13064
C          7.09466       -3.98454        3.33674
H          8.12196       -4.10806        2.98181
H          7.10935       -3.95530        4.42794
C          6.56646       -2.63862        2.84542
O          6.61424       -1.63149        3.54229
O          6.11073       -2.68231        1.61038
H          5.71774       -1.78099        1.35669
