21
conf-123
 N  -10.42807214  -7.60736217  -3.26691373
 H  -9.98106892  -8.06888034  -4.05623667
 H  -10.05872537  -8.04254105  -2.41898047
 H  -11.43265036  -7.76479750  -3.30680630
 C  -10.09795422  -6.16768931  -3.26117706
 H  -10.54165824  -5.68355869  -4.13617030
 C  -8.57559753  -6.01681498  -3.33999401
 C  -10.65074257  -5.50710462  -2.01578266
 H  -11.73870908  -5.63725235  -2.00138718
 H  -10.43167095  -4.43267106  -2.02122038
 O  -7.82902927  -6.97945330  -3.27298755
 O  -10.05141428  -6.15743539  -0.89370464
 H  -10.24634466  -5.64916881  -0.10271347
 N  -8.11844937  -4.75232453  -3.46761366
 H  -8.72517312  -3.94842866  -3.52347981
 C  -6.70431201  -4.45998939  -3.54724880
 H  -6.17869591  -5.03289036  -2.77791130
 C  -6.57532908  -2.95963046  -3.27241161
 C  -6.11129355  -4.83124188  -4.90706044
 H  -5.04742428  -4.58922885  -4.94014477
 H  -6.62068347  -4.28868529  -5.70745528
 H  -6.23516677  -5.89903589  -5.07726601
 O  -7.54085611  -2.21364671  -3.37673607
 N  -5.34782911  -2.51504300  -2.95812776
 H  -4.58031861  -3.15946347  -2.84222698
 C  -4.99146090  -1.10586556  -2.86650446
 H  -5.51033363  -0.54365608  -3.64562474
 C  -3.48309554  -1.06902958  -3.06808051
 C  -5.40696763  -0.48958723  -1.50845920
 H  -5.07996569  -1.18129632  -0.71871525
 O  -2.76681169  -1.94413151  -2.59920907
 C  -4.82974272   0.89316847  -1.25882220
 H  -3.73740550   0.89949019  -1.20084345
 H  -5.14257698   1.57442752  -2.05599910
 H  -5.23131920   1.26938070  -0.31737262
 O  -6.81198616  -0.34063921  -1.44703492
 H  -7.24680155  -0.92649098  -2.08599599
 N  -3.00033805  -0.02361039  -3.78852947
 H  -3.61279371   0.76122876  -3.93510708
 C  -1.56924527   0.26373775  -3.85423288
 H  -1.06577867  -0.68017906  -4.07405989
 C  -1.09903780   0.76638840  -2.48874929
 C  -1.27795597   1.28847713  -4.96035730
 H  -1.99232111   2.10321764  -4.81109313
 O  -1.55587505   1.81822309  -1.99866376
 C   0.13383400   1.86126360  -4.84935775
 H   0.87544811   1.05862045  -4.91943773
 H   0.27687183   2.37941734  -3.90004461
 H   0.31755483   2.57094530  -5.65935118
 C  -1.48965672   0.66266584  -6.33827357
 H  -0.75435169  -0.13030015  -6.49686810
 H  -2.48643178   0.23022763  -6.44924637
 H  -1.35310731   1.41066506  -7.12288588
 N  -0.16677952  -0.00476286  -1.88169215
 H   0.25126541  -0.78325158  -2.36465969
 C   0.34573492   0.27215857  -0.56079506
 H   0.14615811   1.32765925  -0.36395693
 C   1.85334196   0.01879758  -0.57631465
 C  -0.36592175  -0.54807372   0.54135627
 H   0.09150970  -0.22648538   1.48347014
 O   2.38321615  -0.71705760  -1.39590314
 C  -0.14252749  -2.05263769   0.38112627
 H   0.92900130  -2.24011728   0.24340101
 H  -0.62896763  -2.38048067  -0.54109777
 C  -1.85982913  -0.20520165   0.58353259
 H  -2.41951206  -0.84016028  -0.11234490
 H  -2.02903211   0.83574337   0.30636236
 H  -2.26071565  -0.36475514   1.58472777
 C  -0.66681110  -2.86596018   1.55650459
 H  -0.43230150  -3.92457382   1.43105135
 H  -0.21887689  -2.53440316   2.49745219
 H  -1.75097207  -2.77640716   1.65151369
 N   2.54803136   0.63006940   0.40973607
 H   2.10848065   1.19562918   1.11881278
 C   3.97842613   0.44297132   0.56836459
 H   4.21670150  -0.62266053   0.49815681
 C   4.30885690   0.97830404   1.96576457
 C   4.77378819   1.15446344  -0.53099667
 H   4.33934731   0.88693431  -1.49613150
 H   4.69927898   2.24312602  -0.43709204
 O   3.53134603   1.70586282   2.57395459
 C   6.27922470   0.77161193  -0.60596016
 O   6.92900519   1.43508374  -1.42568836
 O   6.67560198  -0.17076174   0.12086194
 N   5.51381691   0.61981060   2.43660978
 H   6.14620298   0.18458298   1.75885697
 C   6.00912007   1.16576387   3.68924567
 H   5.12722674   1.39210060   4.29274685
 C   6.75062393   2.47743281   3.42170148
 C   6.91052399   0.16660365   4.40019143
 H   7.34864643   0.64498837   5.27680164
 H   7.75134176  -0.09017850   3.75419913
 O   7.94953694   2.63554554   3.65421255
 C   6.17481224  -1.08177373   4.81431222
 C   4.85279399  -1.40888357   4.76964274
 H   3.99386760  -0.85060088   4.42433000
 N   6.84762338  -2.17110159   5.35222566
 H   7.85748678  -2.21860434   5.49956805
 C   5.94856962  -3.12847325   5.62144558
 H   6.15324588  -4.08642407   6.04242257
 N   4.72725902  -2.69013883   5.27785522
 N   6.00206666   3.45593781   2.86822735
 H   4.99806501   3.33597794   2.79229853
 C   6.59813732   4.71547120   2.47521700
 H   7.62230860   4.47980876   2.16952480
 C   6.63795037   5.65425581   3.67752551
 C   5.86398823   5.31599571   1.28820566
 H   5.89392855   4.55891102   0.49431331
 H   4.81511809   5.47068363   1.55202891
 O   5.85132457   6.57818963   3.83036701
 C   6.44617411   6.63395487   0.75169173
 H   6.13531989   7.43190984   1.43089350
 C   7.97228859   6.62227666   0.71651457
 H   8.33923843   5.73574706   0.19047241
 H   8.34656020   7.50637099   0.19561720
 H   8.39974220   6.63130700   1.72356249
 C   5.85939589   6.90950870  -0.62902034
 H   6.20011309   6.15541673  -1.34217391
 H   6.16617670   7.89022885  -0.99955135
 H   4.76758085   6.88628941  -0.60317156
 N   7.60419102   5.35703295   4.58553085
 H   8.19577857   4.55521200   4.41334072
 C   8.05914390   6.37237122   5.51079201
 H   7.22947674   7.06871840   5.62673159
 C   9.24992804   7.14302075   4.80662653
 C   8.49913372   5.75165961   6.82171342
 H   9.40075307   5.16902148   6.61905524
 H   7.72887472   5.04983729   7.14114623
 O   8.92102716   7.96469174   3.94247970
 C   8.76561806   6.78060557   7.93423405
 H   8.91198982   7.77002824   7.49633076
 H   7.90216883   6.85460471   8.59891387
 C   10.02002491   6.42961300   8.72138273
 H   10.15724851   7.10733434   9.56493820
 H   9.95569221   5.40997270   9.11873832
 N   11.16531015   6.57154401   7.80710988
 H   10.93307712   6.89006829   6.86615701
 N   12.64789945   5.29921182   9.07234098
 H   13.63512231   5.15775221   9.23057885
 H   12.14462987   5.60759499   9.89436180
 N   13.17137554   5.92757805   6.86869292
 H   13.85144910   5.18301779   6.85184138
 H   12.74903946   6.13451138   5.96619849
 C   12.31606605   5.93326936   7.91912162
 O   10.41808775   6.81180068   5.13836092
 H   3.84576041  -3.19953031   5.37053043
