21
conf-879
 N  -7.08995155   0.46628781  -11.95428282
 H  -6.97728030  -0.12402723  -12.78011596
 H  -7.48500911  -0.12165454  -11.21402398
 H  -7.72449092   1.23340503  -12.16090904
 C  -5.79533167   0.94439792  -11.44006077
 H  -5.11698964   1.18283794  -12.26424697
 C  -5.20252708  -0.15871191  -10.56811143
 C  -5.97565084   2.20910953  -10.59522726
 H  -6.64843372   1.97759339  -9.75382551
 H  -6.44940184   2.97904595  -11.21073811
 O  -5.92126847  -0.99778891  -10.04374211
 O  -4.73705226   2.73090659  -10.15537711
 H  -4.45722533   2.25058773  -9.36282449
 N  -3.85285996  -0.12294420  -10.39119187
 H  -3.38451379   0.73369984  -10.64678035
 C  -3.25165576  -0.83266733  -9.27494523
 H  -3.77733916  -1.78408829  -9.19184708
 C  -3.45122118  -0.03156732  -7.98538412
 C  -1.76724576  -1.04934878  -9.52812784
 H  -1.31871303  -1.63147661  -8.72014221
 H  -1.25386343  -0.08787856  -9.58441568
 H  -1.61981899  -1.58425747  -10.46729177
 O  -3.39452887   1.19892519  -7.97974420
 N  -3.63796160  -0.76023712  -6.86945376
 H  -3.71148656  -1.76349335  -6.90945570
 C  -3.75274524  -0.16152836  -5.55927043
 H  -3.37196920   0.85310269  -5.62468155
 C  -2.92584861  -1.00182888  -4.59693121
 C  -5.21869021  -0.11457917  -5.08121377
 H  -5.21745402   0.17383479  -4.02100138
 O  -3.05061064  -2.22845282  -4.56272513
 C  -6.02217335   0.88905621  -5.88010754
 H  -5.63690126   1.90299014  -5.73805015
 H  -5.96565604   0.64440440  -6.94231582
 H  -7.06643304   0.85408472  -5.57490854
 O  -5.85490783  -1.37248519  -5.25213191
 H  -5.35495246  -2.02815261  -4.75065311
 N  -2.07885202  -0.33143048  -3.78888286
 H  -2.10020972   0.67796562  -3.72405721
 C  -1.34819191  -1.00063482  -2.72557704
 H  -1.99460520  -1.78210711  -2.30974057
 C  -1.04819073   0.06724983  -1.67912240
 C  -0.06372294  -1.70407200  -3.23998693
 H  -0.40698919  -2.28711945  -4.09522633
 O  -1.10212058   1.25795661  -1.93415056
 C   1.00336738  -0.70646155  -3.69122978
 H   1.42152924  -0.19407740  -2.82741430
 H   0.59360961   0.04081735  -4.37417427
 H   1.81247779  -1.23678308  -4.19800990
 C   0.53522467  -2.66634988  -2.21561773
 H   1.07846813  -2.12667218  -1.44170062
 H  -0.23099663  -3.28689516  -1.74296194
 H   1.24291684  -3.33051309  -2.71619926
 N  -0.69262162  -0.40091472  -0.45009222
 H  -0.46481160  -1.37476896  -0.38508928
 C  -0.03705624   0.48923581   0.49588207
 H  -0.60085945   1.42198729   0.47223100
 C   1.39362415   0.78027004   0.02524092
 C  -0.09065004  -0.09151847   1.93097484
 H  -1.14716739  -0.33462040   2.07829674
 O   2.10449753  -0.08559603  -0.48573769
 C   0.27865425   0.95733585   2.98818196
 H  -0.21940239   1.90126597   2.73367649
 H   1.35243659   1.16642092   2.95704317
 C   0.73817477  -1.36613224   2.06181833
 H   1.79267527  -1.14352391   1.89325636
 H   0.43325341  -2.11465623   1.32640296
 H   0.63209747  -1.80855441   3.05461601
 C  -0.14221601   0.55780711   4.39770309
 H   0.19397261   1.29562505   5.12683079
 H  -1.22964407   0.47902806   4.46954116
 H   0.27328820  -0.40971407   4.68524380
 N   1.80466474   2.06848874   0.20712172
 H   1.23612257   2.64912965   0.80110554
 C   3.21170026   2.42704375   0.10327959
 H   3.70926074   1.64487253  -0.46458272
 C   3.87006731   2.49365538   1.49719043
 C   3.42404478   3.76597150  -0.59232663
 H   2.84512054   3.80516412  -1.51203195
 H   3.11121553   4.58160177   0.06435179
 O   3.28065672   2.96529223   2.49070328
 C   4.91768191   3.95438601  -0.98327007
 O   5.26938708   5.13487837  -1.12786655
 O   5.59842345   2.92138558  -1.13854400
 N   5.16527897   2.05077814   1.50493406
 H   5.61865108   2.01879774   0.59429926
 C   5.95998500   2.10650136   2.72384320
 H   5.27140447   2.25840382   3.55204627
 C   6.85377464   3.33701635   2.69962281
 C   6.68254736   0.79699876   2.96993127
 H   7.40833778   0.92070197   3.77404522
 H   7.24169287   0.48312276   2.08830658
 O   8.07991544   3.27973573   2.62212757
 C   5.66340620  -0.25158643   3.36292337
 C   4.32020609  -0.15284761   3.59001330
 H   3.66271788   0.71446043   3.50483805
 N   6.01486789  -1.57196327   3.57576651
 H   6.95974782  -1.94974329   3.47293468
 C   4.90568556  -2.24679835   3.91871555
 H   4.81802514  -3.29366749   4.12946115
 N   3.85895920  -1.40060890   3.94620303
 N   6.18999543   4.51499327   2.74688538
 H   5.17819443   4.51310984   2.79805548
 C   6.89076617   5.76748846   2.49456394
 H   7.72836817   5.50680150   1.84315427
 C   7.45184097   6.30140417   3.81303331
 C   5.96750366   6.75964296   1.80237749
 H   5.40058161   6.20664951   1.05362020
 H   5.25695453   7.14106293   2.53893132
 O   7.00324398   7.28849348   4.38044026
 C   6.67828881   7.92898009   1.11445522
 H   7.31583714   8.41565338   1.85885879
 C   7.54158095   7.44947145  -0.05153764
 H   6.92351709   6.93000834  -0.78739481
 H   8.02494761   8.29689124  -0.54231805
 H   8.32648064   6.76617374   0.28034654
 C   5.64564700   8.94614344   0.63178577
 H   4.97986688   8.48895632  -0.10539673
 H   6.13188133   9.80412822   0.16251471
 H   5.03886954   9.31640580   1.46030976
 N   8.47767101   5.58821802   4.33396143
 H   8.81423351   4.73430833   3.90392513
 C   9.07058221   5.98745881   5.57755728
 H   9.13700596   7.07554746   5.62087621
 C   10.50010539   5.37494806   5.67158126
 C   8.27543919   5.49477152   6.79406093
 H   8.04923815   4.43093457   6.67238121
 H   7.32603752   6.03143532   6.80440032
 O   11.31906723   6.07475450   6.27972874
 C   9.03963286   5.71740619   8.10873289
 H   9.66276134   6.61119761   8.02324912
 H   8.32093908   5.91624750   8.90907721
 C   9.87750067   4.50867849   8.52720835
 H   9.19823713   3.72765233   8.87942678
 H   10.42877173   4.06656754   7.69590803
 N   10.79654382   4.81771509   9.63509120
 H   10.36136237   5.21436653   10.45387867
 N   12.75722764   5.04256721   8.35910880
 H   13.73841025   5.28302721   8.35896315
 H   12.25318791   5.32590104   7.51137248
 N   12.73474021   5.37379192   10.70400444
 H   13.74596159   5.35993806   10.67709182
 H   12.35176162   4.88642623   11.50625593
 C   12.10845476   5.08546781   9.52161885
 O   10.66742823   4.25213365   5.17848222
 H   2.88779589  -1.64253199   4.14150630
