21
conf-883
 N  -7.61521848  -6.52269096  -5.86503484
 H  -7.57723547  -6.57183752  -6.88571423
 H  -6.75631623  -6.93761630  -5.49660989
 H  -8.40798751  -7.07265466  -5.53841713
 C  -7.69191498  -5.12800248  -5.38226804
 H  -8.47316476  -4.58625516  -5.92128155
 C  -6.36003956  -4.43643610  -5.60106566
 C  -8.01230572  -5.10172381  -3.89333067
 H  -7.26405039  -5.72076910  -3.37643044
 H  -8.99432796  -5.55279283  -3.72684377
 O  -5.30420738  -4.99124029  -5.29589490
 O  -8.04705991  -3.78562547  -3.38142455
 H  -7.12929255  -3.55144006  -3.17444541
 N  -6.41462553  -3.20112024  -6.13435079
 H  -7.29770209  -2.72027449  -6.16369774
 C  -5.21739637  -2.42824800  -6.44619918
 H  -4.45683236  -3.15937513  -6.73201057
 C  -4.75053590  -1.71025042  -5.18243211
 C  -5.50650349  -1.46519156  -7.57909036
 H  -4.61888535  -0.87456312  -7.81085321
 H  -6.30967109  -0.78101790  -7.30368459
 H  -5.80233200  -2.02677929  -8.46733564
 O  -4.93317947  -0.50234252  -4.99507606
 N  -4.14393063  -2.48308917  -4.26079447
 H  -4.12097599  -3.48843351  -4.40764195
 C  -3.95176368  -1.98084014  -2.90890209
 H  -4.70477728  -1.19798986  -2.76485672
 C  -2.56137466  -1.34826198  -2.82608287
 C  -4.19786165  -3.07997321  -1.88379949
 H  -3.40509462  -3.83050219  -1.97774221
 O  -1.66389585  -1.74762577  -2.07759712
 C  -4.30631855  -2.55648359  -0.46665654
 H  -3.37600103  -2.07963668  -0.16262862
 H  -5.10722869  -1.81814994  -0.41751209
 H  -4.52642170  -3.36544050   0.23147392
 O  -5.46564440  -3.66361661  -2.24249929
 H  -5.59091017  -4.46677889  -1.71902899
 N  -2.38358818  -0.31902765  -3.67720490
 H  -3.17794977  -0.03955354  -4.23966775
 C  -1.10339528   0.34238236  -3.80907501
 H  -0.36172983  -0.41848302  -3.53930471
 C  -1.01092102   1.44768829  -2.75579250
 C  -0.81595644   0.75382500  -5.25948150
 H  -0.80683426  -0.20227990  -5.79431309
 O  -1.05159678   2.64630066  -3.01430036
 C  -1.89797230   1.62893148  -5.88813584
 H  -1.98064245   2.57544142  -5.35494525
 H  -2.87329642   1.13601257  -5.87764207
 H  -1.63880699   1.83999851  -6.92741006
 C   0.57200655   1.39039106  -5.40831713
 H   0.60596244   2.36877895  -4.93269551
 H   1.34592966   0.76248055  -4.95474125
 H   0.81370604   1.51154221  -6.46580111
 N  -0.90629495   0.98565848  -1.48065444
 H  -0.83662552  -0.01604430  -1.35576049
 C  -0.33934940   1.86286504  -0.47130800
 H  -0.54620488   2.86819676  -0.83789494
 C   1.17552781   1.67187376  -0.44106867
 C  -1.01557817   1.72833780   0.90133869
 H  -2.00790150   2.17445957   0.75419775
 O   1.73219611   0.77516838   0.18375894
 C  -0.27723436   2.53713400   1.97708088
 H   0.69005820   2.05705008   2.15705071
 H  -0.84967875   2.44175346   2.90547889
 C  -1.20285723   0.29071419   1.37911044
 H  -0.24095815  -0.21034320   1.47018215
 H  -1.83567079  -0.28506758   0.69822859
 H  -1.68714120   0.28984608   2.35638025
 C  -0.09402956   4.01458346   1.65494826
 H   0.46064586   4.51005940   2.45431198
 H   0.47148752   4.16781856   0.73211301
 H  -1.05727294   4.52263387   1.55049185
 N   1.87318078   2.55318694  -1.19749264
 H   1.44080494   3.12492786  -1.92083214
 C   3.30586182   2.40834280  -1.30742280
 H   3.54163580   1.45050094  -1.78750037
 C   3.88281757   2.41227944   0.10572753
 C   3.87157949   3.56387774  -2.11982206
 H   3.64477902   4.49809975  -1.60617423
 H   4.94675763   3.46486916  -2.25642039
 O   3.52350418   3.22091855   0.95575874
 C   3.18163991   3.56475863  -3.49806426
 O   3.85419741   3.27953274  -4.49280122
 O   1.96593451   3.88784199  -3.47766640
 N   4.81045717   1.44546995   0.35286244
 H   4.89733839   0.69306280  -0.30899096
 C   5.17197744   1.17652570   1.73861093
 H   4.23709401   1.18377415   2.30187014
 C   6.11226854   2.26698149   2.23405817
 C   5.86157395  -0.18337502   1.88885283
 H   6.75587905  -0.16421159   1.25863860
 H   5.20749703  -0.96143525   1.49550247
 O   7.32407032   2.08833169   2.21728017
 C   6.24748514  -0.50958195   3.31785408
 C   6.73037507  -1.65320986   3.88096900
 H   6.88754741  -2.64242209   3.46839477
 N   6.20823351   0.43815865   4.31697823
 H   5.90295350   1.40226831   4.18579218
 C   6.73286879  -0.08009154   5.42765873
 H   6.93533472   0.55573078   6.26975111
 N   7.01568986  -1.37918470   5.20793398
 N   5.52944115   3.29822594   2.87597032
 H   4.58374381   3.54184224   2.60644095
 C   6.29828228   4.32085851   3.57436000
 H   6.81220723   4.94444201   2.83604018
 C   7.35540877   3.71304113   4.50463812
 C   5.30940621   5.15839787   4.39150697
 H   4.54937563   5.54418129   3.70584899
 H   4.81525098   4.46492358   5.07592296
 O   7.07346174   2.85858610   5.35216016
 C   5.89131846   6.31755239   5.20158391
 H   6.60586517   5.89314113   5.91712563
 C   6.62712825   7.32328582   4.32255198
 H   5.95947615   7.71819461   3.55064526
 H   6.98733851   8.16355171   4.92117106
 H   7.49527234   6.88296861   3.83034765
 C   4.77718881   6.99964358   5.99040280
 H   4.04518304   7.43693082   5.30774370
 H   5.17588325   7.79843113   6.61942747
 H   4.26011168   6.28786684   6.63706255
 N   8.60800992   4.19130100   4.33180122
 H   8.78946748   5.11757993   3.95595112
 C   9.68757550   3.83109644   5.20393116
 H   9.30444044   3.38546502   6.13209430
 C   10.43782020   5.16226538   5.50048652
 C   10.69877515   2.86935458   4.57632716
 H   11.56064042   2.82917340   5.24853128
 H   11.04300378   3.27791081   3.62477792
 O   11.28113357   5.15770990   6.39507293
 C   10.09388943   1.48969801   4.39628498
 H   9.74080508   1.13299579   5.37253802
 H   9.21917606   1.56388133   3.75241827
 C   11.04298640   0.44861582   3.82163253
 H   11.84461881   0.23447168   4.52978743
 H   10.50989474  -0.49136493   3.64856625
 N   11.71130566   0.85806113   2.57156669
 H   12.58068755   1.35646131   2.68460611
 N   9.82260164   0.56914951   1.22100674
 H   9.27722740   1.05870428   0.52500849
 H   9.28119544   0.43240708   2.06637411
 N   11.72433529   1.62948806   0.37291433
 H   11.37990502   1.38821838  -0.54790266
 H   12.73668925   1.64250162   0.42963696
 C   11.08009179   1.02518098   1.40848145
 O   10.09064269   6.10956986   4.75399964
 H   7.40615707  -2.04941238   5.87093405
