21
conf-121
 N  -10.44342470  -4.52403743  -6.44421260
 H  -10.34112330  -3.69360420  -7.02692827
 H  -10.08319572  -5.33320214  -6.95553834
 H  -11.42412919  -4.67175041  -6.20139281
 C  -9.64929461  -4.41427518  -5.20631562
 H  -9.71025823  -3.39886375  -4.80515876
 C  -8.20401923  -4.78523551  -5.52054796
 C  -10.21367059  -5.38359810  -4.18380967
 H  -9.68134177  -5.29993929  -3.22952019
 H  -10.09252608  -6.40195932  -4.56869955
 O  -7.92890766  -5.54654529  -6.43695102
 O  -11.59664160  -5.06356210  -4.03849415
 H  -12.03227832  -5.79321305  -3.59193785
 N  -7.26725883  -4.26807703  -4.69677117
 H  -7.49167949  -3.65249182  -3.92993307
 C  -5.86235717  -4.57045989  -4.85965550
 H  -5.74898907  -5.64513827  -5.01695275
 C  -5.19652080  -4.16221085  -3.54905700
 C  -5.25189641  -3.84307385  -6.05739594
 H  -4.19637680  -4.09810211  -6.16068205
 H  -5.33332335  -2.75905315  -5.94079736
 H  -5.78264136  -4.13305904  -6.96184810
 O  -5.72522006  -3.35927048  -2.78267169
 N  -3.98538685  -4.69825944  -3.30558793
 H  -3.51259159  -5.25176139  -4.00183326
 C  -3.20728637  -4.33991688  -2.12986151
 H  -3.91204648  -4.20312067  -1.31024619
 C  -2.47491249  -3.02077070  -2.38431159
 C  -2.22186618  -5.46162663  -1.80483937
 H  -1.53721319  -5.09175855  -1.03540659
 O  -1.26056737  -2.97949420  -2.61438562
 C  -2.91022199  -6.71284483  -1.30700484
 H  -3.47210626  -6.50689861  -0.39191128
 H  -3.60163418  -7.10055763  -2.05606774
 H  -2.16745455  -7.48439905  -1.09739048
 O  -1.48733931  -5.80199595  -2.97379610
 H  -0.91175401  -5.04817122  -3.14464758
 N  -3.23875043  -1.91461093  -2.38822184
 H  -4.23596571  -2.00267530  -2.24190580
 C  -2.69372770  -0.63168258  -2.80769869
 H  -1.93844290  -0.84465521  -3.57103942
 C  -2.01406510  -0.00548311  -1.58563346
 C  -3.76230820   0.28859857  -3.40935722
 H  -4.46222296   0.53189691  -2.60856696
 O  -2.57874645   0.78668039  -0.83393166
 C  -3.12709423   1.58022966  -3.93032561
 H  -2.40613796   1.34510897  -4.71734601
 H  -2.61039728   2.12068149  -3.13668949
 H  -3.89149152   2.23639629  -4.35266671
 C  -4.50942980  -0.40780184  -4.54207851
 H  -3.80192240  -0.68300770  -5.33157058
 H  -5.02011228  -1.30870293  -4.20362169
 H  -5.25843753   0.25910216  -4.97082947
 N  -0.74074739  -0.40775327  -1.37339942
 H  -0.33552925  -1.16381455  -1.91082296
 C  -0.03132865   0.03199083  -0.19501310
 H  -0.35092419   1.05886933   0.00285565
 C   1.46432501   0.00151091  -0.50983602
 C  -0.40293638  -0.81052747   1.05040385
 H  -1.49795347  -0.83990435   1.03383928
 O   1.94071103  -0.72771268  -1.36130109
 C  -0.01103321  -0.15038992   2.37420750
 H   1.07695713  -0.12086516   2.48285965
 H  -0.36974279  -0.81077143   3.17058539
 C   0.13714106  -2.23751485   0.96395890
 H   1.22735617  -2.23594006   1.01110799
 H  -0.15992597  -2.71519224   0.02723645
 H  -0.24277467  -2.83534793   1.79398669
 C  -0.60796626   1.23546955   2.57423595
 H  -0.54970851   1.54091390   3.62024772
 H  -0.08693917   1.99359974   1.97967898
 H  -1.66228190   1.24911321   2.27625038
 N   2.22190135   0.81169350   0.26223399
 H   1.85006484   1.34486244   1.02847505
 C   3.66735002   0.79558477   0.23280662
 H   4.02685584  -0.23696488   0.19648744
 C   4.08520565   1.46856388   1.55207622
 C   4.21829207   1.51747691  -0.99927000
 H   3.68977611   1.14053756  -1.87645417
 H   4.02746025   2.59310369  -0.94104041
 O   3.27156953   2.08761976   2.22805219
 C   5.73468562   1.28738714  -1.24751345
 O   6.20146314   1.93846691  -2.19412333
 O   6.34023541   0.46658856  -0.51921181
 N   5.37747019   1.29914407   1.87948045
 H   5.96308556   0.86448730   1.15439711
 C   6.01318586   2.12482632   2.88966631
 H   5.23272370   2.70247772   3.37459343
 C   6.99173516   3.05645069   2.17210322
 C   6.78616834   1.28121353   3.89910352
 H   7.30495720   1.94882137   4.59291809
 H   7.55795286   0.71614761   3.37752717
 O   7.87157093   2.60224541   1.44381698
 C   5.90303428   0.34004269   4.68658316
 C   4.55295470   0.19464246   4.72038386
 H   3.79106957   0.72990088   4.16705567
 N   6.43330645  -0.59263508   5.57177849
 H   7.42960685  -0.72279331   5.75596468
 C   5.41846459  -1.27674187   6.11771294
 H   5.49266072  -2.06049021   6.83665887
 N   4.25959665  -0.81718251   5.61778936
 N   6.79481284   4.38029271   2.37660112
 H   6.27680944   4.69579446   3.18335087
 C   7.71591733   5.36429028   1.85784493
 H   8.64711811   4.86042054   1.58336962
 C   7.98394162   6.35336241   2.99328724
 C   7.18014544   6.11646318   0.63763878
 H   6.27914921   6.65656407   0.93963672
 H   7.91896944   6.87118610   0.35007750
 O   7.29686379   6.39365468   3.99692901
 C   6.85397455   5.25549516  -0.58285760
 H   6.16659181   4.46823046  -0.26852545
 C   6.14535072   6.10704934  -1.63303257
 H   6.79138452   6.92543080  -1.96118591
 H   5.88392516   5.50803039  -2.50917711
 H   5.22522330   6.53692619  -1.23190462
 C   8.10050556   4.59937181  -1.17624454
 H   8.78896667   5.36654485  -1.53994847
 H   7.82446555   3.95189291  -2.01102142
 H   8.62176192   3.99064636  -0.43594130
 N   9.02092115   7.19297216   2.77341023
 H   9.40370706   7.35414059   1.85152291
 C   9.24331058   8.33769187   3.61693136
 H   8.27818385   8.80970550   3.86054641
 C   10.07402609   9.31346177   2.73300204
 C   9.95294620   7.97470073   4.92408376
 H   10.99992955   7.73535836   4.71694906
 H   9.48289767   7.06140180   5.28621176
 O   10.47848399   10.35723335   3.25556916
 C   9.84716073   9.07316483   5.97534114
 H   10.26127340   10.00610335   5.58617179
 H   8.79042647   9.26225638   6.18731627
 C   10.55057456   8.69872049   7.26357402
 H   11.58635425   8.43258343   7.03980184
 H   10.56781536   9.54667601   7.95863121
 N   9.87434637   7.53433812   7.87769246
 H   8.86554320   7.56654031   7.82110533
 N   11.52378828   7.30116083   9.52272351
 H   11.96697186   6.67237234   10.17331459
 H   12.14423327   7.85090580   8.95202368
 N   9.52262549   6.08201406   9.64596782
 H   9.94739647   5.50356203   10.35446942
 H   8.82235503   5.61300107   9.08760072
 C   10.32612517   6.96652043   9.00747983
 O   10.22714475   8.94415566   1.54781166
 H   3.32148438  -1.14669475   5.85363692
