21
conf-727
 N  -11.13769496  -3.21975879  -6.85442684
 H  -11.15579177  -4.00709673  -6.20019493
 H  -10.91338420  -2.37551559  -6.32015617
 H  -12.03321435  -3.10498256  -7.32394808
 C  -10.03584680  -3.45628372  -7.80952777
 H  -10.36290439  -4.12063522  -8.61562224
 C  -8.93034986  -4.16809663  -7.03289791
 C  -9.58169303  -2.13220241  -8.39985035
 H  -10.44024034  -1.64641943  -8.86864458
 H  -8.81843809  -2.27419780  -9.17895963
 O  -9.19387148  -4.78071517  -6.00839433
 O  -9.14105590  -1.25471559  -7.37791367
 H  -8.25023679  -1.51766271  -7.09165646
 N  -7.67281126  -4.10432839  -7.55508051
 H  -7.52004761  -3.40495199  -8.26120486
 C  -6.53279235  -4.35167536  -6.68716853
 H  -6.80515538  -5.19633851  -6.05465573
 C  -6.27872974  -3.12926147  -5.79487428
 C  -5.29893975  -4.68327982  -7.51264553
 H  -4.44956400  -4.91212351  -6.86602949
 H  -5.02705384  -3.83913050  -8.15063003
 H  -5.49870633  -5.54887656  -8.14520834
 O  -6.56847858  -1.98660451  -6.14478292
 N  -5.70496931  -3.39283641  -4.59916108
 H  -5.33317133  -4.31149125  -4.41578566
 C  -5.22665726  -2.33087172  -3.73660283
 H  -5.24828992  -1.39894048  -4.30033427
 C  -3.81495896  -2.69414554  -3.29241103
 C  -6.15714128  -2.14073432  -2.51530672
 H  -6.18514746  -3.08931436  -1.96385792
 O  -3.52491796  -3.84150639  -2.98129147
 C  -5.70475200  -1.01215377  -1.61265774
 H  -4.73222513  -1.21616153  -1.15752251
 H  -5.64225430  -0.08787236  -2.19545058
 H  -6.44093977  -0.86968729  -0.82185751
 O  -7.46665016  -1.78633166  -2.95219649
 H  -7.86672915  -2.55422275  -3.37186636
 N  -2.93349200  -1.65835844  -3.25128024
 H  -3.29218320  -0.71720420  -3.31957003
 C  -1.69357883  -1.74545386  -2.50812797
 H  -1.75901431  -2.62507849  -1.86015195
 C  -1.59170485  -0.46871621  -1.66112848
 C  -0.46029668  -1.93420725  -3.41507603
 H   0.39131192  -2.03712796  -2.73070256
 O  -2.28344038   0.51371762  -1.89331381
 C  -0.57521865  -3.22559582  -4.22158500
 H  -1.33104881  -3.12146217  -5.00028282
 H  -0.85638676  -4.06698663  -3.58624769
 H   0.37614586  -3.45131352  -4.70716372
 C  -0.21418929  -0.73480081  -4.32440256
 H  -1.03812214  -0.63083799  -5.03429796
 H  -0.13492924   0.19263542  -3.75248507
 H   0.70698107  -0.87364071  -4.89452904
 N  -0.67073078  -0.51801719  -0.66900438
 H  -0.03708650  -1.29984622  -0.60432873
 C  -0.31246583   0.63755776   0.13691051
 H  -0.74799707   1.52397700  -0.32250797
 C   1.20791137   0.73232210   0.12486347
 C  -0.84006512   0.53324242   1.58750657
 H  -0.42590665  -0.39807956   1.98890441
 O   1.91795183  -0.25354601   0.23396280
 C  -2.36927786   0.40931074   1.64214563
 H  -2.64242434   0.19054758   2.67882701
 H  -2.68412110  -0.46421140   1.06307122
 C  -0.36031632   1.69094468   2.47003930
 H  -0.62265729   2.65829517   2.02942133
 H   0.72148523   1.67895465   2.62626427
 H  -0.83896551   1.63220461   3.45146765
 C  -3.13191306   1.64269050   1.17370081
 H  -4.20852008   1.48077910   1.25111364
 H  -2.88635060   2.51259013   1.78691503
 H  -2.90631097   1.88611940   0.13388272
 N   1.71479839   1.99199885  -0.00847942
 H   1.08907178   2.76040186   0.17394048
 C   3.12261207   2.23658256   0.28236807
 H   3.67423570   1.36925154  -0.08454844
 C   3.31068594   2.38122973   1.79633783
 C   3.60894401   3.50125031  -0.41163549
 H   3.53678460   3.41116273  -1.49146079
 H   3.01155461   4.34936929  -0.06672280
 O   2.70071609   3.23062558   2.43958737
 C   5.08271881   3.72641228  -0.00453397
 O   5.87286030   4.06673439  -0.89667134
 O   5.30579120   3.54081204   1.19353006
 N   4.13811465   1.46562438   2.36805366
 H   4.72514650   0.93699934   1.73939240
 C   4.79158353   1.80589573   3.62105908
 H   4.26819758   2.66782117   4.02340003
 C   6.23334027   2.14619447   3.30312188
 C   4.75299224   0.63049437   4.60248614
 H   5.26177739  -0.22260933   4.15402421
 H   3.71626225   0.35840013   4.79541960
 O   6.96699803   1.35172627   2.71495996
 C   5.45162629   0.99531104   5.88065156
 C   6.67097608   0.62046886   6.35338100
 H   7.37972721  -0.09230606   5.94850359
 N   4.97675708   1.98976533   6.71747849
 H   4.06748011   2.45314432   6.63414331
 C   5.89770046   2.21017567   7.67061244
 H   5.79041651   2.92146949   8.46515512
 N   6.94671364   1.39022331   7.46886153
 N   6.63576080   3.37148416   3.70825011
 H   6.08302326   3.88559032   4.36482945
 C   7.95247297   3.85220500   3.38607068
 H   8.17353672   3.49697855   2.37153206
 C   9.00840118   3.24349724   4.31935044
 C   8.01901670   5.37467576   3.40371500
 H   7.79204089   5.70789910   4.41844268
 H   9.04869328   5.68115353   3.19205221
 O   8.73279879   2.57278703   5.30883726
 C   7.08926832   6.08955085   2.41905188
 H   6.05948256   5.80992087   2.65388200
 C   7.22820670   7.59916503   2.60617275
 H   8.24310763   7.92149675   2.35905385
 H   6.53452931   8.13692147   1.95600241
 H   7.01790116   7.89168319   3.63734922
 C   7.36207888   5.70497843   0.96782019
 H   8.41974764   5.87117499   0.73566922
 H   6.78281739   6.35113651   0.30391527
 H   7.10274251   4.67508026   0.71156859
 N   10.27898669   3.52193453   3.95116431
 H   10.52993586   4.22819674   3.27318236
 C   11.43476721   3.03655535   4.64375665
 H   11.42029606   3.35410179   5.69464645
 C   12.63192632   3.74105109   3.93751376
 C   11.58556087   1.51434768   4.61631556
 H   10.74225952   1.11396692   5.17374849
 H   12.50220558   1.26337980   5.15955854
 O   13.76951454   3.38950482   4.25130843
 C   11.62767708   0.94620288   3.20313141
 H   10.81234298   1.37293368   2.61531825
 H   12.55934341   1.25364065   2.71403917
 C   11.52439738  -0.56838068   3.13193155
 H   11.64740734  -0.88214174   2.09355884
 H   12.33075244  -1.04080228   3.69810927
 N   10.20628729  -1.07658515   3.57738626
 H   9.40597518  -0.74789884   3.05385301
 N   10.92005731  -1.86686156   5.66244871
 H   10.64470774  -2.09893293   6.60512694
 H   11.71713172  -1.24162376   5.60051523
 N   8.67480824  -2.11286287   4.97568251
 H   8.60222098  -2.83942755   5.67936304
 H   8.14781863  -2.33777018   4.13692362
 C   9.95759512  -1.68606087   4.73420695
 O   12.28989467   4.63151835   3.12572324
 H   7.83369646   1.39268886   7.97544673
