21
conf-34
 N  -8.18523809   3.22990973   4.07834643
 H  -8.39475309   2.98988360   5.04812707
 H  -7.47151834   3.96708411   4.08554716
 H  -9.02648135   3.54810946   3.59594688
 C  -7.57115334   2.09987729   3.36028407
 H  -8.00449620   1.16062668   3.71357430
 C  -6.07074697   2.14509456   3.64268298
 C  -7.82159078   2.21553101   1.85384475
 H  -7.35488302   3.13527982   1.49280522
 H  -7.32644839   1.38165380   1.35055461
 O  -5.53106148   3.19087641   3.97027716
 C  -9.29296268   2.21917968   1.52623064
 C  -10.05710486   1.06819794   1.70801683
 H  -9.56709140   0.16800105   2.06105203
 C  -9.92861940   3.38110722   1.10024105
 H  -9.34888657   4.29069227   0.97589421
 C  -11.42231789   1.06782881   1.44092576
 H  -11.99380956   0.15701508   1.57927133
 C  -11.29731944   3.39455603   0.84680406
 H  -11.77265056   4.31211848   0.52054643
 C  -12.04805923   2.23458533   1.01217281
 H  -13.11297021   2.24058685   0.80949522
 N  -5.39716446   0.98138835   3.46536929
 H  -5.85117936   0.19298240   3.02861986
 C  -3.95404184   0.91539157   3.52917496
 H  -3.57977615   1.93568069   3.57818747
 C  -3.46538076   0.18416499   2.27900218
 C  -3.49875300   0.16982084   4.77499761
 H  -2.40368994   0.07578038   4.76632506
 H  -3.92902442  -0.83907229   4.76234241
 O  -4.09276952  -0.74558167   1.79792390
 O  -3.94440507   0.92295157   5.89588762
 H  -3.81999659   0.39521199   6.68807593
 N  -2.28333015   0.60664570   1.77170033
 H  -1.73903601   1.34210271   2.20001254
 C  -1.65155640  -0.06483905   0.66169302
 H  -1.73348035  -1.14928509   0.77793692
 C  -0.19188888   0.37384114   0.68308861
 C  -2.32802903   0.29749032  -0.70677938
 H  -2.21432375   1.39460702  -0.82667690
 H  -3.40453892   0.13521716  -0.53803689
 O   0.15342991   1.39561656   1.26755026
 O  -1.86695614  -0.37171026  -1.72122901
 N   0.66864515  -0.41335158   0.00835213
 H   0.29054329  -1.06335342  -0.66171874
 C   2.07681853  -0.05587011  -0.11833459
 H   2.33983229   0.48043852   0.79475820
 C   2.24214103   0.85981747  -1.33538981
 C   2.94533910  -1.29678803  -0.28927309
 H   2.54708642  -1.94009855  -1.07439695
 H   3.94565223  -0.99612332  -0.60783720
 O   2.78213993   0.48659862  -2.36754747
 C   3.11119652  -2.06537191   0.99325682
 O   3.06620504  -1.59258599   2.10083808
 O   3.37139524  -3.36873963   0.76181723
 N   1.67197687   2.08516246  -1.21502940
 H   1.22221854   2.36510569  -0.35151366
 C   1.55241984   2.96749899  -2.35105488
 H   2.29157567   2.66741065  -3.09865531
 C   1.84293578   4.38590499  -1.90999607
 C   0.14906973   2.91976431  -2.97587598
 H   0.06611913   3.72769458  -3.70034025
 H  -0.58053396   3.11384328  -2.18082281
 O   1.83207316   4.77954676  -0.77382640
 C  -0.15744653   1.58773418  -3.64403614
 H   0.04033949   0.75773380  -2.96530436
 H   0.50006008   1.45251824  -4.50351745
 C  -1.61263042   1.48284426  -4.08632021
 H  -1.82393713   0.47997439  -4.46303445
 H  -2.25658687   1.63352206  -3.21925145
 N  -2.02561079   2.47803993  -5.09187940
 H  -2.27519561   3.38206439  -4.71762538
 N  -0.78959074   1.47858235  -6.79559819
 H  -0.63688636   1.38220145  -7.78657994
 H  -0.80638046   0.61904007  -6.27153979
 N  -1.74208139   3.60112209  -7.10578194
 H  -2.51899131   4.19947698  -6.85850127
 H  -1.57355406   3.51538247  -8.09715904
 C  -1.53163217   2.50458806  -6.33798141
 O   2.08894784   5.18827011  -2.96629345
 H   2.23323336   6.07027600  -2.60172222
 H   3.48787760  -3.77705074   1.63085622
