21
conf-217
 N  -6.10624813  -1.50574636   5.71182775
 H  -5.38679782  -2.05363900   6.18481463
 H  -6.16456917  -0.59486560   6.17865803
 H  -7.00488408  -1.98741423   5.75386749
 C  -5.73701550  -1.22657205   4.31480124
 H  -5.16043830  -2.06341844   3.91093273
 C  -4.89041186   0.04629134   4.31623990
 C  -6.98077927  -1.03566477   3.44204287
 H  -7.53990076  -0.17125424   3.80764284
 H  -6.66384069  -0.80803231   2.42228422
 O  -4.92379129   0.80779960   5.28169925
 C  -7.86150886  -2.25913358   3.44894919
 C  -7.43868295  -3.43340477   2.82911026
 H  -6.48188655  -3.43865357   2.31960726
 C  -9.07699557  -2.26227320   4.12551372
 H  -9.40890514  -1.36014087   4.63042173
 C  -8.22656741  -4.57950622   2.85799244
 H  -7.88159922  -5.47807418   2.35915454
 C  -9.86402195  -3.40953493   4.17407670
 H  -10.80506373  -3.39109437   4.71106739
 C  -9.44219898  -4.57172243   3.53545437
 H  -10.05594700  -5.46473812   3.56659561
 N  -4.16841329   0.29443969   3.21029869
 H  -4.09342413  -0.38315348   2.46487061
 C  -3.44611093   1.53058375   2.96484828
 H  -4.11195869   2.39027450   3.07960132
 C  -2.96070147   1.43188141   1.52458411
 C  -2.26482499   1.75779946   3.93063142
 H  -1.53141020   2.42295234   3.45977812
 H  -1.77856191   0.78949455   4.11222082
 O  -2.89015689   0.35702903   0.93568427
 O  -2.67208495   2.38318420   5.12496786
 H  -3.46938999   1.92937164   5.43069071
 N  -2.55327441   2.58676095   0.96343729
 H  -2.60300005   3.44638744   1.48188289
 C  -2.01382408   2.64938558  -0.37536724
 H  -2.52255122   1.87495693  -0.95611179
 C  -0.51356944   2.33758009  -0.40618099
 C  -2.36983013   4.06116040  -0.99849241
 H  -3.45826693   3.93291496  -1.20682265
 H  -1.90360103   4.00546656  -2.00707341
 O   0.32250267   3.06871632  -0.93827948
 O  -2.09410130   5.09865818  -0.32032180
 N  -0.16254278   1.18070438   0.19402536
 H  -0.88255570   0.50802005   0.42566855
 C   1.22943969   0.78874206   0.29896963
 H   1.80739719   1.70686587   0.43542631
 C   1.66437053   0.09127682  -1.00036805
 C   1.45313129  -0.16030551   1.47229742
 H   0.76802511  -1.00838522   1.42347666
 H   2.46071421  -0.57622459   1.40670278
 O   1.82611504  -1.11840927  -1.07205351
 C   1.35345001   0.51439091   2.81122989
 O   1.47213123   1.69858584   3.01694685
 O   1.15401144  -0.38003519   3.80063737
 N   1.84084348   0.90454172  -2.06814689
 H   1.59608044   1.88841697  -2.01346914
 C   2.23007224   0.33766322  -3.34305793
 H   2.88241290  -0.51983282  -3.15543540
 C   2.97388875   1.38382092  -4.13789115
 C   0.99963592  -0.15246923  -4.12568384
 H   0.34812139   0.70228893  -4.31927081
 H   0.46109878  -0.82585446  -3.45850518
 O   2.76083169   2.56832712  -4.09453501
 C   1.33662687  -0.87418946  -5.42307834
 H   2.01864438  -1.69709717  -5.21254501
 H   1.85084828  -0.20919638  -6.11707656
 C   0.08640669  -1.42395943  -6.09005544
 H  -0.46748651  -2.06238172  -5.39372784
 H  -0.57704151  -0.59723410  -6.35348645
 N   0.32895279  -2.16228110  -7.34261464
 H   0.50464211  -1.58961785  -8.15636909
 N   1.17575412  -4.03616077  -6.23404632
 H   1.33075602  -5.03133567  -6.25971527
 H   0.79175558  -3.67334807  -5.37721818
 N   1.24816830  -3.89248800  -8.57680035
 H   0.74612778  -3.55060524  -9.38555368
 H   1.48633700  -4.87277730  -8.61034517
 C   0.89851041  -3.37523592  -7.37336210
 O   3.89562625   0.83428287  -4.95561435
 H   4.28005953   1.56692557  -5.45327807
 H   1.17329370   0.12408384   4.62444276
