21
conf-883
 N  -9.38383638   3.96668057   2.26011285
 H  -9.14143512   4.49601977   3.09751520
 H  -9.33741531   4.61771623   1.47905746
 H  -10.33846875   3.62512205   2.34616644
 C  -8.42622219   2.86304429   2.05759552
 H  -8.41640855   2.23079028   2.95425316
 C  -7.02672282   3.46986072   1.91794448
 C  -8.81344620   1.97194841   0.86953831
 H  -8.14180790   1.10853067   0.85924381
 H  -9.81946025   1.58911766   1.06800280
 O  -6.83123300   4.65478993   2.12088701
 C  -8.78133479   2.67466389  -0.45991235
 C  -9.89030298   3.37615069  -0.92617801
 H  -10.79860472   3.39718583  -0.33091980
 C  -7.63585127   2.64097666  -1.26045936
 H  -6.77235510   2.07897508  -0.91963258
 C  -9.85042348   4.05933221  -2.14084151
 H  -10.72338801   4.60779240  -2.47477783
 C  -7.58929031   3.31603745  -2.47804450
 H  -6.68556056   3.27916570  -3.07263774
 C  -8.69790537   4.03201125  -2.91914246
 H  -8.66438261   4.56164792  -3.86487539
 N  -6.03287151   2.60353435   1.61047514
 H  -6.24425430   1.70611442   1.20815744
 C  -4.70093944   3.07473026   1.30104623
 H  -4.76659225   4.02473222   0.75729980
 C  -4.08812046   2.00953002   0.37055581
 C  -3.89424748   3.31959554   2.56961310
 H  -3.62924705   2.36661246   3.04041768
 H  -4.51998518   3.88955340   3.25719597
 O  -4.78169315   1.13339909  -0.13184168
 O  -2.72821062   4.06458238   2.20808981
 H  -2.16448326   4.13609794   2.98384515
 N  -2.77529823   2.13687839   0.13003422
 H  -2.25870577   2.88804134   0.57747064
 C  -2.07712779   1.22039193  -0.74983055
 H  -2.52749974   0.23050780  -0.63696716
 C  -0.61468056   1.22114721  -0.32618768
 C  -2.21537769   1.66743364  -2.22204729
 H  -1.79323579   2.67172880  -2.31353501
 H  -3.27700706   1.70816916  -2.45522770
 O  -0.01353252   2.27368350  -0.18537919
 O  -1.56986741   0.83024807  -3.07310734
 N  -0.04976619  -0.00055602  -0.10789531
 H  -0.52311489  -0.80646462  -0.49312108
 C   1.40352761  -0.11592256  -0.04874755
 H   1.78931308   0.88328686   0.12460148
 C   1.89152668  -0.64712928  -1.39495080
 C   1.84086510  -1.04905501   1.07759632
 H   1.40528794  -0.69263158   2.01285271
 H   1.46772662  -2.05805981   0.90353785
 O   1.35438538  -1.61181813  -1.92460079
 C   3.33243252  -1.13972499   1.26976677
 O   3.91865530  -2.11173097   1.66559890
 O   3.95482688   0.02299391   0.96226386
 N   2.95105756   0.00998688  -1.92114735
 H   3.45113755   0.65763373  -1.33000412
 C   3.61792403  -0.44586515  -3.12219259
 H   3.29247055  -1.47223921  -3.32469237
 C   5.10818382  -0.47067991  -2.87224270
 C   3.26167028   0.43260669  -4.32950169
 H   3.92108687   0.19739006  -5.16619437
 H   3.44737610   1.47199888  -4.04981480
 O   5.64870949  -0.10834219  -1.85891508
 C   1.79831563   0.23287394  -4.72099456
 H   1.20467066   0.08876276  -3.82056835
 H   1.68319699  -0.68767197  -5.29674789
 C   1.18685263   1.38828902  -5.51089854
 H   1.48971370   2.34628518  -5.07941732
 H   1.51865865   1.38077625  -6.55154630
 N  -0.29146889   1.36689007  -5.43806761
 H  -0.63318954   1.49442896  -4.46728471
 N  -0.52167322  -0.16353440  -7.17709613
 H  -1.17259340  -0.69458751  -7.73794072
 H   0.09628740   0.41903124  -7.72725642
 N  -2.15678257   0.00733019  -5.47969464
 H  -2.19852532   0.24145146  -4.45937441
 H  -2.57307786  -0.86007310  -5.78437707
 C  -0.99940664   0.38801344  -6.03094547
 O   5.78084458  -0.96482878  -3.92861573
 H   6.71544724  -0.94880322  -3.68695171
 H   4.90881536  -0.11565691   1.04679385
