21
conf-14
 N  -6.35433429  -3.13381126   5.29431009
 H  -5.59186172  -3.42991632   5.90810232
 H  -6.82519359  -2.33867482   5.73337119
 H  -7.01959606  -3.90113853   5.21012609
 C  -5.85418813  -2.71096666   3.96548632
 H  -5.19628832  -3.48369003   3.55781275
 C  -5.08769466  -1.40586929   4.11308105
 C  -7.02702198  -2.47621066   3.00722011
 H  -7.60588563  -3.40082515   2.94817785
 H  -7.65725217  -1.71227550   3.46683475
 O  -5.60497415  -0.43207791   4.65705135
 C  -6.59301239  -2.03164644   1.63542678
 C  -6.40755875  -0.67326493   1.36341712
 H  -6.57682928   0.05205979   2.15454441
 C  -6.32887884  -2.95888059   0.62685187
 H  -6.47186032  -4.01660297   0.81961033
 C  -5.99705586  -0.25215188   0.10010204
 H  -5.87373058   0.80665420  -0.09126166
 C  -5.90001877  -2.53841937  -0.63035502
 H  -5.70465970  -3.27579185  -1.40098919
 C  -5.73563961  -1.18419945  -0.90128639
 H  -5.41534892  -0.85667752  -1.88349166
 N  -3.83834002  -1.39655787   3.58563558
 H  -3.54539352  -2.14709953   2.97734829
 C  -3.09387467  -0.16899791   3.43563908
 H  -3.75217153   0.66407591   3.67987362
 C  -2.63409156  -0.07686949   1.98914323
 C  -1.89915878  -0.12561838   4.37642075
 H  -1.31501624   0.78523113   4.18035587
 H  -1.25486060  -0.99168731   4.18572004
 O  -2.42186609  -1.08065490   1.31373648
 O  -2.41827162  -0.12874674   5.70005080
 H  -1.69639584  -0.29390484   6.31129637
 N  -2.39388511   1.16611196   1.51448883
 H  -2.78763356   1.95565486   1.99848249
 C  -2.06508954   1.36618295   0.11186069
 H  -2.54322308   0.55346265  -0.44801947
 C  -0.54789824   1.29766197  -0.06308829
 C  -2.68110212   2.72246305  -0.33582271
 H  -2.29539922   2.90584919  -1.35203337
 H  -2.17514070   3.48422866   0.28539905
 O   0.13229665   2.28282139  -0.32340064
 O  -3.98081084   2.72310673  -0.26104444
 N  -0.01005172   0.06656496   0.11694611
 H  -0.62767147  -0.68896156   0.38452467
 C   1.42028601  -0.10747769   0.24159836
 H   1.79156422   0.57591048   1.01250135
 C   2.12561556   0.22751691  -1.07775290
 C   1.75907498  -1.54336009   0.65352794
 H   1.31830671  -2.25136276  -0.04721595
 H   2.83990744  -1.70002502   0.63086510
 O   1.65803646  -0.01418427  -2.17575548
 C   1.31986479  -1.86930793   2.05621811
 O   1.06596605  -1.05609790   2.91502824
 O   1.27859245  -3.19500319   2.27935766
 N   3.34801614   0.80528022  -0.91682334
 H   3.78449923   0.84569111  -0.01188811
 C   4.16354715   1.14181031  -2.05848826
 H   3.81123710   0.54540577  -2.90328464
 C   5.60037496   0.77831093  -1.75833240
 C   4.06652655   2.62717360  -2.43340517
 H   4.66943137   2.78854911  -3.32674377
 H   4.49784368   3.23661723  -1.63613203
 O   6.04275641   0.52351492  -0.66747758
 C   2.62610092   3.04959397  -2.68517025
 H   2.03489349   2.91060480  -1.78878694
 H   2.19082430   2.40917090  -3.45523527
 C   2.51812306   4.49848304  -3.12512284
 H   2.99291758   5.15377025  -2.38376954
 H   3.04658766   4.63579655  -4.07346079
 N   1.09458507   4.84510656  -3.29300531
 H   0.47361717   4.38084902  -2.64462706
 N   1.60776473   6.99567848  -4.05465314
 H   1.30498208   7.78593342  -4.59994309
 H   2.55974695   6.70133095  -4.18939129
 N  -0.61553245   6.37274260  -3.62791987
 H  -1.25821060   5.59596983  -3.69266790
 H  -0.91478134   7.19837987  -4.12348713
 C   0.70527685   6.07178865  -3.67834861
 O   6.35707208   0.80010471  -2.87319228
 H   7.25252223   0.57508034  -2.59010506
 H   1.01241965  -3.29887079   3.20303882
