21
conf-746
 N  -8.69066076   3.13708438   2.86224477
 H  -8.87377050   3.62982266   3.73743539
 H  -8.29122610   3.81200045   2.20043763
 H  -9.55048343   2.73444788   2.48760015
 C  -7.66432094   2.09532458   3.03219896
 H  -7.77130063   1.62506948   4.01359556
 C  -6.29815627   2.75997371   2.90344415
 C  -7.80310012   1.01406133   1.95433282
 H  -7.69809045   1.48862032   0.97502635
 H  -6.97442590   0.31306032   2.05678277
 O  -6.16398829   3.80085735   2.28093758
 C  -9.12572604   0.29962781   2.04500956
 C  -10.12262017   0.51723718   1.09905171
 H  -9.93242808   1.19118642   0.26934789
 C  -9.39787882  -0.54628681   3.11913566
 H  -8.63102543  -0.69925810   3.87031334
 C  -11.36156670  -0.10791673   1.20943153
 H  -12.12425209   0.07909827   0.46264148
 C  -10.62735432  -1.18820123   3.22816175
 H  -10.81117604  -1.85086861   4.06630183
 C  -11.61591874  -0.96751582   2.27375165
 H  -12.57759405  -1.46047900   2.35925911
 N  -5.25774263   2.10303120   3.49071148
 H  -5.42085122   1.14795635   3.76715282
 C  -3.91124553   2.33739918   2.99657317
 H  -3.86306880   3.37991379   2.68984978
 C  -3.63519664   1.41723975   1.79328088
 C  -2.91239518   2.08618809   4.10354437
 H  -3.15564703   2.72828107   4.95580568
 H  -1.89968953   2.33388527   3.75586938
 O  -4.33246941   0.45469423   1.52349676
 O  -3.02479857   0.70623286   4.44659163
 H  -2.32321484   0.49361934   5.06821851
 N  -2.53203112   1.74820590   1.07552843
 H  -1.94924106   2.52610236   1.34447781
 C  -2.09395638   0.97277285  -0.05475393
 H  -2.58852196   0.00346881  -0.01581191
 C  -0.58316480   0.86354067   0.04327874
 C  -2.47900642   1.68351588  -1.42154359
 H  -1.91594343   1.12350721  -2.20102906
 H  -1.94218920   2.65503462  -1.36560113
 O   0.08034327   1.86965981   0.29424014
 O  -3.72624864   1.75564370  -1.66841677
 N  -0.04071629  -0.35130208  -0.17361515
 H  -0.65510208  -1.13269113  -0.32620724
 C   1.36493736  -0.63557801   0.10787304
 H   1.63923788  -0.07281935   1.00356799
 C   2.24063545  -0.17946290  -1.06993363
 C   1.57696411  -2.12816497   0.33676694
 H   1.16952505  -2.70145780  -0.49577162
 H   2.64647646  -2.34308277   0.36980228
 O   2.81298247  -0.96010063  -1.81681339
 C   0.98827398  -2.59802287   1.63892625
 O   0.62005113  -1.88566111   2.53882312
 O   0.94394103  -3.94394027   1.70222706
 N   2.34099591   1.16109066  -1.24308678
 H   1.74161457   1.76541637  -0.69024607
 C   3.00031506   1.66374602  -2.42992801
 H   2.52976032   1.22942593  -3.32241457
 C   4.45500657   1.23010983  -2.40491862
 C   2.88910500   3.19162795  -2.47231490
 H   3.43182435   3.59035217  -1.61228283
 H   1.83447958   3.43981958  -2.33037086
 O   5.15536363   1.18820746  -1.42879131
 C   3.42124602   3.80514472  -3.75690788
 H   2.96356043   3.31889771  -4.62039291
 H   4.49743302   3.61925869  -3.83480131
 C   3.18195043   5.30126292  -3.85152737
 H   3.51240035   5.79356728  -2.93112356
 H   3.77903319   5.71468192  -4.66886777
 N   1.75588083   5.58619376  -4.11092155
 H   1.10620590   4.87275949  -3.81583967
 N   2.08819319   7.89599897  -4.02175695
 H   1.74761683   8.80341246  -4.29565239
 H   3.07384580   7.74137685  -4.15348306
 N  -0.08078895   7.00575580  -4.16069392
 H  -0.62943589   6.25435263  -4.55728016
 H  -0.41426405   7.92798138  -4.39616911
 C   1.26431683   6.83251114  -4.11688957
 O   4.90724016   0.95498395  -3.65241138
 H   5.83491485   0.71446566  -3.54346064
 H   0.57483064  -4.16077008   2.56892278
