21
conf-705
 N  -7.73193407   0.70424831   4.75138687
 H  -7.42035153   1.44865629   5.37982156
 H  -8.13860310   1.14023381   3.92056487
 H  -8.45370804   0.16142990   5.22370347
 C  -6.59978340  -0.15734582   4.32485016
 H  -6.03879980  -0.48567194   5.20487432
 C  -5.69499925   0.66702566   3.42138706
 C  -7.11652625  -1.36402001   3.54617294
 H  -7.88680827  -1.84935736   4.15132604
 H  -7.59537921  -0.97900355   2.64440385
 O  -6.11653087   1.15061313   2.37384468
 C  -6.03860300  -2.35444672   3.19982779
 C  -5.18695239  -2.12676990   2.11532886
 H  -5.32252114  -1.22536180   1.52206916
 C  -5.84490169  -3.49908647   3.97281514
 H  -6.49849083  -3.68819789   4.81510571
 C  -4.17392008  -3.03547176   1.80822571
 H  -3.51968352  -2.83657694   0.96614452
 C  -4.82680155  -4.40063167   3.67239662
 H  -4.69664836  -5.28304361   4.28945373
 C  -3.98559194  -4.17103199   2.58980197
 H  -3.19291678  -4.87186151   2.35237912
 N  -4.43435544   0.88616121   3.87980376
 H  -4.02566618   0.21309995   4.50764190
 C  -3.50685190   1.60003568   3.02649261
 H  -4.07427677   2.35565296   2.47668029
 C  -2.85689962   0.62158275   2.06913829
 C  -2.42983972   2.28365761   3.86523238
 H  -1.76461730   1.52221261   4.29746010
 H  -2.91747818   2.82643055   4.67587634
 O  -2.29102547  -0.37813329   2.48831891
 O  -1.71671732   3.23351035   3.09666489
 H  -1.09806081   2.75312151   2.52802375
 N  -2.91653866   0.92527562   0.74827544
 H  -3.25291956   1.83587377   0.49115159
 C  -1.95692725   0.34532076  -0.16456710
 H  -2.08807980  -0.73484758  -0.16357884
 C  -0.52322670   0.74607617   0.25141227
 C  -2.24754762   0.94451153  -1.60299719
 H  -1.48964301   0.46203589  -2.25444144
 H  -1.84163535   1.98049628  -1.50046748
 O  -0.25811571   1.93072966   0.57329917
 O  -3.45262419   0.83888332  -2.00373230
 N   0.37399383  -0.28115448   0.22353575
 H   0.08345052  -1.16758219  -0.14485329
 C   1.79141541  -0.06538758   0.47871088
 H   1.84169163   0.76679265   1.18194519
 C   2.51153428   0.28163541  -0.83682781
 C   2.44744248  -1.32055528   1.04566266
 H   2.21736903  -2.18622947   0.42336717
 H   3.53303671  -1.19844456   1.01416731
 O   3.13992846  -0.54973459  -1.47359612
 C   2.10172278  -1.58898697   2.48342779
 O   1.87818680  -0.74403304   3.31350597
 O   2.11843285  -2.90709681   2.76468874
 N   2.40593914   1.56193859  -1.26950411
 H   1.76737841   2.19518512  -0.81464510
 C   2.98144304   1.93252190  -2.55205046
 H   2.56533284   1.28982132  -3.33607244
 C   4.48301663   1.69724488  -2.58248609
 C   2.65098558   3.39804199  -2.84469277
 H   3.19230632   4.02500146  -2.13332695
 H   1.58179027   3.52975020  -2.64729762
 O   5.08652793   1.25188248  -3.52880374
 C   2.97051643   3.81977490  -4.26983071
 H   2.40571726   3.19094084  -4.96202920
 H   4.02847821   3.66010973  -4.48230838
 C   2.61057889   5.27162135  -4.52749871
 H   1.54813124   5.42012102  -4.31617706
 H   3.17566878   5.92451590  -3.85061266
 N   2.88100882   5.61359238  -5.93654439
 H   3.69042144   5.15897603  -6.33268402
 N   2.02037358   7.77566869  -5.68538301
 H   1.60103749   8.56729715  -6.14495617
 H   1.59268480   7.48723138  -4.82216629
 N   3.11052982   7.13729772  -7.66404459
 H   3.24947087   6.35880581  -8.29340359
 H   2.75083175   7.96986638  -8.10406461
 C   2.64888966   6.84366856  -6.42486518
 O   5.08973277   2.10111576  -1.44926264
 H   6.03104247   1.92715173  -1.56620759
 H   1.91252011  -2.98278466   3.70696727
