21
conf-962
 N  -9.27619715   3.35108878   2.52880182
 H  -9.20625927   3.98226924   3.32615190
 H  -10.24493041   3.06332906   2.41618473
 H  -8.99497559   3.88182131   1.70964123
 C  -8.39030707   2.18721166   2.72889010
 H  -8.60022574   1.75850991   3.72131249
 C  -6.94782880   2.70977883   2.77657072
 C  -8.61410602   1.06449744   1.69757921
 H  -7.96705844   0.23785073   2.02493063
 O  -6.72511572   3.89351295   2.96976618
 C  -10.05223169   0.55462397   1.73329922
 H  -10.74134925   1.27759942   1.29385529
 H  -10.13587202  -0.36723291   1.15310041
 H  -10.38522083   0.33804667   2.75115903
 C  -8.21950470   1.46537589   0.28035899
 H  -8.82157207   2.31253338  -0.05876448
 H  -7.16387227   1.73949830   0.21244503
 H  -8.40105988   0.63863768  -0.41135687
 N  -5.96361338   1.78764206   2.64871976
 H  -6.15753946   0.89662742   2.22002999
 C  -4.59400810   2.20426238   2.45431442
 H  -4.56979933   3.14601937   1.89184948
 C  -3.95748243   1.08648829   1.60414203
 C  -3.89277701   2.43740823   3.78375914
 H  -3.71108815   1.48336783   4.29237363
 H  -4.55138666   3.04576595   4.40662606
 O  -4.63510347   0.17485489   1.15530340
 O  -2.67112518   3.12680913   3.51060866
 H  -2.16357356   3.17441039   4.32560712
 N  -2.64183081   1.20139561   1.37501980
 H  -2.09603800   1.93175927   1.81412553
 C  -1.94552480   0.24022592   0.55661791
 H  -2.26575239  -0.76323056   0.84716862
 C  -0.44859588   0.41805667   0.83620759
 C  -2.24482756   0.43262034  -0.93290279
 H  -1.64767290  -0.26873562  -1.52358257
 H  -2.00841322   1.45475383  -1.24951783
 H  -3.30088629   0.25223617  -1.11632146
 O  -0.00576632   1.43867361   1.33428518
 N   0.32735683  -0.62985752   0.46906401
 H  -0.07434283  -1.38743357  -0.05721310
 C   1.77766663  -0.51242266   0.42020610
 H   2.01407034   0.54915488   0.45958357
 C   2.22268178  -1.06792926  -0.95067714
 C   2.47896963  -1.23942398   1.55480039
 H   2.17231960  -2.28379012   1.51538780
 H   3.55592263  -1.21228733   1.34888303
 O   2.03142250  -2.26851610  -1.23448811
 C   2.24163854  -0.68783146   2.96184251
 H   1.16880043  -0.66120588   3.15108218
 C   2.87711419  -1.63572529   3.97510629
 H   3.94696046  -1.75429040   3.75940070
 H   2.77595377  -1.25879361   4.99471452
 H   2.41250892  -2.62389841   3.93512488
 C   2.79626371   0.72570471   3.11380634
 H   3.87326587   0.73329780   2.92188684
 H   2.63162266   1.09032390   4.13082533
 H   2.31302368   1.42066385   2.42623492
 N   2.76068202  -0.13349422  -1.78111669
 H   2.83568300   0.80497845  -1.43670696
 C   3.01922277  -0.35806284  -3.20030940
 H   2.22514746  -1.02061616  -3.55534788
 C   4.37851662  -1.04297223  -3.34607320
 C   2.98857321   0.96937634  -3.97057536
 H   3.22030284   0.76432889  -5.01811070
 H   3.77354892   1.61918138  -3.58713322
 O   5.43460584  -0.42978413  -3.31956121
 C   1.65771041   1.61984388  -3.84770046
 C   0.56481003   1.14370654  -4.58758629
 H   0.73262064   0.35084294  -5.30968356
 C   1.44543052   2.65579558  -2.93064782
 H   2.28692160   3.05972609  -2.37742050
 C  -0.70492771   1.63963761  -4.41897482
 H  -1.54511998   1.26813295  -4.98935026
 C   0.19481953   3.17654326  -2.70150504
 H   0.02403060   3.95829047  -1.97451665
 O  -2.10721865   3.05744908  -3.16367941
 C  -0.96196827   2.66707263  -3.41815616
 N   4.29626068  -2.39155319  -3.46532159
 H   3.40577581  -2.81115069  -3.24311814
 C   5.46165093  -3.23004094  -3.27962489
 H   6.34485857  -2.60007072  -3.39132490
 C   5.50835004  -4.30731294  -4.34378046
 C   5.46588331  -3.90830181  -1.90367751
 H   4.62028040  -4.59656979  -1.85744267
 H   6.37696896  -4.50527571  -1.82145156
 O   6.50363786  -4.74404264  -4.85728835
 C   5.37438717  -2.92341334  -0.74947039
 H   4.48187763  -2.30082649  -0.88309477
 H   6.23435856  -2.24841772  -0.77129984
 C   5.23596261  -3.59487508   0.60633862
 H   6.09566007  -4.23817171   0.82148930
 H   5.21542466  -2.82219720   1.38161491
 C   3.95157957  -4.40621393   0.68810956
 H   4.06094790  -5.31494911   0.09376223
 H   3.14390535  -3.82302030   0.24299331
 N   3.59827094  -4.77310333   2.07610510
 H   2.79024359  -5.39352134   2.12509285
 H   4.37577403  -5.22697179   2.55612216
 H   3.36852140  -3.92998757   2.60541089
 O   4.26762918  -4.77850450  -4.61459577
 H   4.37640614  -5.47731876  -5.27156142
