21
conf-879
 N  -5.07342075  -4.34558687   2.85362690
 H  -4.31855568  -5.01716666   3.00377710
 H  -5.92127479  -4.85543217   2.60364065
 H  -5.24071129  -3.84605128   3.73119487
 C  -4.70937171  -3.34294419   1.82826266
 H  -4.31026945  -3.85714110   0.94609779
 C  -3.62094175  -2.45306228   2.42143747
 C  -5.92556119  -2.50740116   1.38506677
 H  -6.38525865  -2.13301611   2.30373281
 O  -3.67390080  -2.06670038   3.58105922
 C  -5.53303235  -1.30869039   0.51940678
 H  -4.99024876  -1.63657069  -0.37598883
 H  -6.42549906  -0.77451578   0.18971559
 H  -4.90183141  -0.58706556   1.04141850
 C  -6.93864855  -3.35862751   0.62328132
 H  -6.49040887  -3.71766239  -0.30611284
 H  -7.28666599  -4.22609646   1.18476276
 H  -7.81526042  -2.75930009   0.36930500
 N  -2.59796008  -2.12682237   1.58822471
 H  -2.66582556  -2.32201903   0.60017359
 C  -1.63134573  -1.10944371   1.94000253
 H  -1.46279719  -1.16941610   3.01370934
 C  -2.13132538   0.29505378   1.56879307
 C  -0.33651101  -1.39962833   1.18063222
 H   0.08368763  -2.33169451   1.55657206
 H   0.38854111  -0.58706601   1.33309796
 O  -2.62707181   0.51358764   0.43890314
 O  -0.58698447  -1.59788884  -0.19880167
 H  -0.65661474  -0.72205863  -0.60799971
 N  -1.92817885   1.25329615   2.52989273
 H  -1.40678721   0.99507706   3.35093266
 C  -1.93558251   2.67602940   2.20433244
 H  -2.60631862   2.77185650   1.34479937
 C  -0.52531206   3.12674302   1.77610118
 C  -2.44643167   3.46679813   3.38608846
 H  -2.48957712   4.53028487   3.14442360
 H  -1.78247967   3.34225997   4.24402450
 H  -3.44527230   3.11795108   3.65156081
 O   0.09924364   4.00206975   2.36317975
 N  -0.01037771   2.45882472   0.71830063
 H  -0.57536497   1.83227410   0.16204595
 C   1.27536657   2.75627496   0.14266163
 H   1.35342022   3.83312590  -0.03269942
 C   1.28568710   1.98685316  -1.17933415
 C   2.43515241   2.33205006   1.05824351
 H   2.18477669   2.65027650   2.07073583
 H   2.47877694   1.23712455   1.07104819
 O   0.51543529   1.05072988  -1.39023516
 C   3.81990325   2.89691674   0.71413056
 H   4.15197823   2.48384157  -0.24812178
 C   3.79086939   4.42190522   0.62209522
 H   3.15070022   4.82488499   1.41595110
 H   4.79239885   4.84677581   0.74103567
 H   3.39832561   4.75586172  -0.34597785
 C   4.82460321   2.42470331   1.76012430
 H   4.56636353   2.82841161   2.74087074
 H   5.84122341   2.74139497   1.51523040
 H   4.82111572   1.33397527   1.82292057
 N   2.20948134   2.38215435  -2.07516880
 H   2.90148907   3.03304573  -1.75317763
 C   2.62913865   1.49485292  -3.14551024
 H   1.73183402   1.18526422  -3.68562020
 C   3.28707415   0.22703242  -2.58519645
 C   3.58113558   2.25614792  -4.10424866
 H   2.98143798   2.94324555  -4.70506084
 H   4.04227742   1.52962514  -4.77627032
 O   3.69011582   0.10920249  -1.43762556
 C   4.62229643   3.01473707  -3.34693609
 C   4.54526027   4.40657097  -3.21663572
 H   3.80137250   4.94688116  -3.79305408
 C   5.60533830   2.32221281  -2.63065242
 H   5.70226215   1.25737742  -2.78329043
 C   5.35649540   5.08963280  -2.34682222
 H   5.28705178   6.16167023  -2.21708212
 C   6.43076069   2.95510559  -1.73178274
 H   7.15316529   2.41695946  -1.13208325
 O   6.94852904   4.96346425  -0.62795464
 C   6.29892741   4.38295962  -1.50181237
 N   3.41202317  -0.78615868  -3.48286398
 H   3.20780189  -0.61459895  -4.44906241
 C   4.20637586  -1.95359271  -3.14252138
 H   3.85656574  -2.34208927  -2.18416803
 C   5.66444491  -1.59999100  -2.94563547
 C   4.04844389  -3.02580807  -4.22455440
 H   2.97741708  -3.20558633  -4.34449529
 H   4.41952950  -2.63597982  -5.17431285
 O   6.38259507  -2.06568124  -2.09778701
 C   4.74274047  -4.33392405  -3.88189015
 H   4.38866655  -4.67887667  -2.90448017
 H   5.81895721  -4.17992335  -3.77973778
 C   4.47793556  -5.41299079  -4.91632904
 H   3.40058858  -5.56715917  -5.02162990
 H   4.85247125  -5.08726000  -5.89034903
 C   5.12785028  -6.73086133  -4.55861696
 H   4.74597608  -7.06759103  -3.59183244
 H   6.20380980  -6.57947866  -4.44417880
 N   4.88126021  -7.77917893  -5.58003183
 H   5.32270532  -8.66729025  -5.33959178
 H   3.88275943  -7.95244549  -5.69066539
 H   5.24205100  -7.49292113  -6.48947615
 O   6.10679973  -0.71910853  -3.87714541
 H   7.04303501  -0.57551059  -3.70713942
