21
conf-705
 N  -6.41191471   2.24972613   3.88320756
 H  -6.47112580   2.16092764   4.89856688
 H  -7.22912019   2.74301016   3.53198485
 H  -5.57570874   2.79631039   3.66241395
 C  -6.24186078   0.93404567   3.23033228
 H  -6.80266839   0.17473741   3.79053012
 C  -4.75627938   0.59644555   3.27985954
 C  -6.78886849   0.94926783   1.78367787
 H  -7.84250769   1.22827060   1.90743410
 O  -3.90888787   1.48813865   3.21783857
 C  -6.12428028   2.00217841   0.90129455
 H  -5.07797561   1.75057890   0.73021855
 H  -6.62193399   2.04838478  -0.06957988
 H  -6.16371930   2.99340897   1.35208248
 C  -6.73644433  -0.41971369   1.10981501
 H  -5.70726457  -0.67150786   0.83706614
 H  -7.13245866  -1.21120995   1.75144369
 H  -7.32842056  -0.40702367   0.19209662
 N  -4.42400705  -0.70399633   3.33297702
 H  -5.12413134  -1.42898349   3.37617034
 C  -3.04038541  -1.14497667   3.31986766
 H  -2.46739908  -0.36420466   3.82637954
 C  -2.50442852  -1.26620518   1.88518921
 C  -2.93894965  -2.44930078   4.08285284
 H  -3.04656698  -2.22952920   5.15081477
 H  -1.96421820  -2.90728942   3.89769942
 O  -2.00532142  -2.30110402   1.44203970
 O  -4.00338008  -3.28940869   3.63801298
 H  -3.78540626  -4.20181263   3.84942594
 N  -2.61343613  -0.14848550   1.14157588
 H  -2.85551933   0.71940790   1.60798744
 C  -2.13151933  -0.10010282  -0.23028481
 H  -2.27723235  -1.11056486  -0.62820024
 C  -0.63124320   0.20287280  -0.24411883
 C  -2.92728329   0.90791338  -1.03710079
 H  -2.60822100   0.89605285  -2.07901065
 H  -2.78304840   1.91772550  -0.64683470
 H  -3.98957929   0.65357585  -0.98695624
 O  -0.16193486   1.24672101  -0.70271294
 N   0.14914187  -0.74621841   0.31709748
 H  -0.27717708  -1.61081423   0.63009687
 C   1.59178741  -0.60704158   0.30754126
 H   1.77449378   0.46933220   0.35295917
 C   2.13277530  -1.12722079  -1.02084379
 C   2.24277971  -1.27949827   1.50159005
 H   1.72324526  -0.93230756   2.39796457
 H   2.09106029  -2.35884031   1.43050576
 O   2.72028434  -2.19863897  -1.14369779
 C   3.74036006  -0.97936878   1.65243558
 H   4.24725855  -1.31027362   0.73044991
 C   4.01633071   0.50826791   1.84245831
 H   3.52444579   0.87554298   2.74843613
 H   5.08889929   0.68554992   1.95002118
 H   3.66917123   1.10410347   0.99762096
 C   4.29411034  -1.78365599   2.82351550
 H   3.76974467  -1.51787582   3.74317266
 H   5.35852407  -1.58872752   2.97660144
 H   4.17375999  -2.85782585   2.65906617
 N   1.88088151  -0.32165309  -2.08665223
 H   1.49672257   0.59151304  -1.88746203
 C   2.73426702  -0.47442373  -3.24097221
 H   2.72442378  -1.54369831  -3.47809816
 C   4.18439511  -0.10072758  -2.88834852
 C   2.18219104   0.27117117  -4.47002598
 H   1.18489531  -0.13153651  -4.66113596
 H   2.81404728   0.00928067  -5.32419678
 O   4.50779635   0.48668505  -1.85434354
 C   2.10242832   1.74785522  -4.33464994
 C   0.90648572   2.35917714  -3.90653035
 H   0.05821166   1.72105569  -3.66653866
 C   3.20528629   2.56783130  -4.64541027
 H   4.12490148   2.10337587  -4.99152915
 C   0.79167214   3.71076426  -3.75042051
 H  -0.12168673   4.17759783  -3.40859653
 C   3.14933296   3.92846645  -4.52017276
 H   3.99347961   4.56240597  -4.75567639
 O   1.85391514   5.79942407  -3.93413929
 C   1.92514559   4.57883133  -4.05810565
 N   5.07672287  -0.51012084  -3.82688110
 H   4.74478915  -1.03402512  -4.61691697
 C   6.49870309  -0.44847696  -3.59693188
 H   6.65767471   0.26680639  -2.78497839
 C   7.25524332   0.09477776  -4.78818350
 C   7.09841333  -1.79814118  -3.17502218
 H   6.97309352  -2.52726246  -3.97881245
 H   8.17118242  -1.65460976  -3.04175714
 O   8.45288000   0.21049706  -4.81700226
 C   6.47500102  -2.32194446  -1.89127480
 H   5.40437278  -2.48068516  -2.02928694
 H   6.57123789  -1.55469722  -1.11676811
 C   7.07743345  -3.63186310  -1.40990061
 H   6.92615538  -4.39845098  -2.17620633
 H   8.15619751  -3.52682273  -1.26620964
 C   6.43589213  -4.09876790  -0.11203970
 H   6.62851347  -5.15947587   0.06248210
 H   5.34505337  -3.97969996  -0.18932747
 N   6.89997603  -3.31630960   1.06181346
 H   6.26143388  -3.39862713   1.85265595
 H   7.82685708  -3.62351009   1.36144873
 H   6.97387093  -2.32439573   0.83305922
 O   6.46112314   0.45491804  -5.81687902
 H   7.04855161   0.78987738  -6.50690939
