21
conf-34
 N  -7.69722396   3.03371419   5.64099842
 H  -7.03356400   3.23219762   6.39185471
 H  -8.52587392   2.59691630   6.04601185
 H  -7.97630593   3.92134267   5.21613775
 C  -7.08732332   2.18945611   4.59166671
 H  -6.60379872   1.32369454   5.06055972
 C  -6.02416007   3.01648394   3.87997799
 C  -8.13659155   1.66320411   3.59201381
 H  -8.71487085   2.53546207   3.27556942
 O  -6.18973046   4.20161236   3.62444716
 C  -7.51088547   1.03161402   2.34747388
 H  -6.83592018   0.21518967   2.62334871
 H  -8.29630617   0.61776150   1.71054050
 H  -6.94913246   1.75434077   1.74972447
 C  -9.06752419   0.64959686   4.25318025
 H  -8.50081521  -0.24180229   4.53226163
 H  -9.55419069   1.03071069   5.15148311
 H  -9.85268154   0.34947602   3.55629180
 N  -4.89202802   2.33520701   3.54565642
 H  -4.92565221   1.32545045   3.56472949
 C  -3.98789751   2.82585216   2.52480022
 H  -4.42674065   3.70902834   2.05535574
 C  -3.79798330   1.69595761   1.51767978
 C  -2.65127234   3.23148861   3.14917453
 H  -1.91972908   3.42669101   2.36106063
 H  -2.27844659   2.40275977   3.76317228
 O  -4.03901805   0.53465851   1.80238441
 O  -2.77820433   4.41884479   3.90854241
 H  -3.37874717   4.23086677   4.63561107
 N  -3.33203024   2.07812942   0.28996837
 H  -2.94782845   3.00659887   0.23570135
 C  -2.61743774   1.11452375  -0.53352912
 H  -3.06064698   0.13992578  -0.33787570
 C  -1.14377180   1.09704442  -0.11150436
 C  -2.73545207   1.47377593  -2.01071620
 H  -2.17248010   0.76133310  -2.62062950
 H  -2.32441442   2.47133630  -2.18640899
 H  -3.78075014   1.46449160  -2.31914605
 O  -0.58396388   2.06844174   0.36106508
 N  -0.49517473  -0.08769510  -0.32696974
 H  -0.92889683  -0.71062420  -0.98572116
 C   0.95873903  -0.08908344  -0.36315154
 H   1.29014323   0.55646822   0.44796718
 C   1.42496199   0.50128902  -1.70047422
 C   1.47838237  -1.51286222  -0.15106984
 H   1.01090834  -1.88769517   0.76233304
 H   1.10855952  -2.12979490  -0.97574283
 O   0.74501111   0.45399497  -2.71533093
 C   2.99269693  -1.69427128  -0.01983279
 H   3.47583025  -1.31896244  -0.92729039
 C   3.55512724  -0.94158218   1.17911501
 H   3.16135816  -1.36180322   2.10902146
 H   4.64606550  -1.01707138   1.20106488
 H   3.30236744   0.12394342   1.16052196
 C   3.30862417  -3.18359653   0.08891904
 H   2.82010713  -3.61025016   0.96774519
 H   4.38342072  -3.35418319   0.18298727
 H   2.95925397  -3.72529605  -0.79256870
 N   2.65934681   1.05337147  -1.68778971
 H   3.28645921   0.96548737  -0.90594012
 C   3.30381374   1.47272009  -2.90648688
 H   3.02992877   0.78179548  -3.70963724
 C   4.80853419   1.38169275  -2.63236321
 C   2.85855821   2.88981601  -3.31512610
 H   3.17873384   3.60134901  -2.55262183
 H   1.76842467   2.87120589  -3.33519606
 O   5.23409171   1.27645256  -1.49159120
 C   3.41032343   3.25199921  -4.65291545
 C   4.46927636   4.16056233  -4.78153657
 H   4.82015759   4.69394098  -3.90072721
 C   2.95037001   2.56045123  -5.78288460
 H   2.11908618   1.86596513  -5.65467633
 C   5.11489440   4.32459732  -5.97310125
 H   5.95895545   4.99693352  -6.08560320
 C   3.54138277   2.70695340  -7.00423371
 H   3.20079067   2.16810358  -7.87931634
 O   5.24399418   3.75265940  -8.24717070
 C   4.68265365   3.59768430  -7.16008415
 N   5.61881125   1.42086058  -3.71398868
 H   5.24529988   1.62893251  -4.63789345
 C   7.05836354   1.43412263  -3.52749136
 H   7.30574786   2.10381087  -2.69598819
 C   7.69445004   1.92187377  -4.80029163
 C   7.58876824   0.02940064  -3.19292826
 H   7.00999098  -0.33199971  -2.34372361
 H   7.37994367  -0.63376001  -4.03545824
 O   7.32872458   1.62252557  -5.90903558
 C   9.07234065   0.01316297  -2.86284590
 H   9.26710847   0.74190165  -2.06941471
 H   9.66547998   0.32819759  -3.72484610
 C   9.54325383  -1.35596944  -2.40421832
 H   8.95691498  -1.67778560  -1.53913059
 H   9.37159269  -2.08816224  -3.19796550
 C   11.00954238  -1.36815596  -2.03469763
 H   11.18184412  -0.64728636  -1.23192543
 H   11.59702072  -1.03797233  -2.89465120
 N   11.47413580  -2.71016744  -1.60341326
 H   12.46486038  -2.71800661  -1.35882653
 H   10.95385296  -3.03147926  -0.78770506
 H   11.33458090  -3.39817134  -2.34260271
 O   8.78097813   2.68785569  -4.57485540
 H   9.13362298   2.89573919  -5.44987849
