21
conf-625
 N  -10.85283019   0.46988862   7.79285711
 H  -11.32527259  -0.24903922   7.24202847
 H  -11.55279184   1.03547618   8.26976396
 H  -10.27564585  -0.00681603   8.49086758
 C  -9.96194061   1.29602272   6.95521199
 H  -10.49885559   1.63418412   6.06477458
 C  -8.75585638   0.45033249   6.54679578
 C  -9.47731346   2.52809810   7.72848640
 H  -8.91905155   2.17381164   8.59765327
 H  -10.36357152   3.05731410   8.08980588
 O  -8.30388896  -0.42056093   7.27511542
 C  -8.62147517   3.43786303   6.88759351
 C  -7.23356858   3.42434788   7.00321314
 H  -6.76214603   2.74309188   7.70550044
 C  -9.21262633   4.27710509   5.94609886
 H  -10.29390300   4.26415400   5.84326127
 C  -6.45443022   4.25872721   6.20179553
 H  -5.37266747   4.23655348   6.29632676
 C  -8.43740038   5.11710965   5.15019652
 H  -8.91768479   5.77237329   4.43379549
 C  -7.05240103   5.11062282   5.27952665
 H  -6.44465694   5.76259668   4.66534013
 N  -8.20804631   0.76293466   5.34886006
 H  -8.50878293   1.58394011   4.84253253
 C  -6.91345937   0.23557729   4.96393695
 H  -6.32084356   0.07853911   5.87026434
 C  -6.25305426   1.29247315   4.08791747
 C  -7.02824594  -1.09026672   4.21246179
 H  -6.03564887  -1.42826971   3.89817202
 H  -7.64663410  -0.95842572   3.32225463
 H  -7.48414308  -1.84793607   4.85008267
 O  -6.89893678   1.99931451   3.33224518
 N  -4.89351101   1.36648462   4.20400980
 H  -4.44680062   0.55234832   4.59536299
 C  -4.12186062   2.00686536   3.15528774
 H  -4.79006923   2.72016461   2.67612399
 C  -3.71179470   0.94027298   2.13262333
 C  -2.91014065   2.72976707   3.73002642
 H  -2.36557639   3.24100022   2.93152095
 H  -2.22688827   2.02133004   4.20673686
 H  -3.23556634   3.46291816   4.46801830
 O  -3.69266599  -0.24812746   2.39520965
 N  -3.36572775   1.42660777   0.90558818
 H  -3.18775474   2.41210300   0.84253349
 C  -2.58810165   0.58636243   0.01689322
 H  -3.00758685  -0.41892500   0.08914678
 C  -1.12141253   0.52214604   0.49145760
 C  -2.72085378   1.06054697  -1.44218135
 H  -2.14117550   0.38292313  -2.07632259
 H  -3.77227876   0.95330341  -1.72076094
 O  -0.68456314   1.15614854   1.44704406
 C  -2.27343159   2.47842765  -1.64854077
 C  -3.17118171   3.54112489  -1.55646683
 H  -4.21683345   3.33808561  -1.35139363
 C  -0.93478252   2.77807929  -1.91570432
 H  -0.22222736   1.96759312  -2.00607555
 C  -2.75215518   4.86036133  -1.69124619
 H  -3.45144280   5.68104367  -1.60444549
 C  -0.49748729   4.09414619  -2.06120778
 H   0.54566619   4.29852730  -2.26458993
 O  -1.05350155   6.44743186  -2.07157958
 H  -0.10993319   6.49945472  -2.24265593
 C  -1.41207817   5.13577939  -1.94429860
 N  -0.36793326  -0.34380829  -0.23490730
 H  -0.68682873  -0.62205938  -1.14820253
 C   1.06782528  -0.38379414  -0.10700592
 H   1.37534916   0.43823994   0.54070461
 C   1.63497753  -0.16203374  -1.50951603
 C   1.55201156  -1.71181392   0.47321718
 H   1.19757313  -2.51792999  -0.17684836
 H   2.63967715  -1.74268961   0.42474162
 O   0.92001332  -0.19056350  -2.50080573
 C   1.09750830  -1.99020652   1.90808975
 H   0.00859418  -1.91500798   1.93784529
 C   1.49122764  -3.41018869   2.30201197
 H   2.57621077  -3.53223606   2.24619008
 H   1.17552506  -3.63764617   3.32283155
 H   1.02939957  -4.14267454   1.63635180
 C   1.67002487  -0.97647503   2.89499410
 H   2.76274088  -1.03706555   2.91211092
 H   1.38216552   0.04518185   2.64259728
 H   1.30476137  -1.18369000   3.90387519
 N   2.97976435   0.08837403  -1.57237139
 H   3.50388450  -0.16102266  -0.75100614
 C   3.69359810  -0.18748821  -2.80745785
 H   2.99451607  -0.02517490  -3.63105262
 C   4.12331758  -1.66426371  -2.81499292
 C   4.91369738   0.71011761  -2.98582113
 H   5.58893629   0.58538105  -2.14128099
 H   5.46187713   0.37689613  -3.87300191
 O   4.16945122  -2.34883977  -1.80388377
 C   4.53913328   2.17938895  -3.14147031
 H   3.99517416   2.54117224  -2.26519764
 H   3.88728135   2.33589416  -4.00222139
 C   5.75069770   3.05909890  -3.28482645
 O   6.88022855   2.75700099  -2.99447604
 O   5.42526750   4.28233461  -3.76342897
 N   4.47509034  -2.13649731  -4.03402062
 H   4.69743195  -1.53044044  -4.81236107
 C   5.13224950  -3.40676509  -4.17523588
 H   5.86563063  -3.54285485  -3.36592028
 C   5.88882542  -3.30667661  -5.53280985
 C   4.15327596  -4.57974582  -4.15174405
 H   3.55077636  -4.56426029  -5.06536854
 H   3.47247509  -4.41627153  -3.31634953
 O   6.49072112  -4.31317580  -5.92478631
 C   4.85743632  -5.92193436  -3.98920485
 H   5.36029236  -5.93479803  -3.01794286
 H   5.62612628  -6.03711453  -4.75419124
 C   3.88378206  -7.08153930  -4.06177660
 H   3.41530344  -7.09281399  -5.05119015
 H   3.08448785  -6.95377966  -3.32196961
 N   4.60338338  -8.35051199  -3.84434975
 H   5.36875488  -8.29134451  -3.18928966
 N   2.68052989  -9.63060861  -4.21490319
 H   2.31280099  -10.52419426  -4.49780670
 H   2.24229895  -8.82277022  -4.62303952
 N   4.66057988  -10.63117735  -3.44802628
 H   4.26211044  -11.53159483  -3.66389076
 H   5.66758128  -10.59106614  -3.52362979
 C   3.97419718  -9.53705290  -3.85638074
 O   5.83200338  -2.18739994  -6.08718603
 H   6.25158349   4.78221684  -3.79964329
