21
conf-123
 N  -11.07309301   4.57113172   6.90703702
 H  -11.84290635   4.69384790   6.24924038
 H  -11.29373333   5.05769937   7.77296046
 H  -11.00723965   3.57333979   7.09803096
 C  -9.81077559   5.05584050   6.31508749
 H  -9.94200169   6.09908903   6.00108749
 C  -9.53803213   4.23718051   5.04945840
 C  -8.65048646   5.01429662   7.32013789
 H  -8.95598849   5.60578864   8.18931076
 H  -7.79411458   5.52783180   6.87337682
 O  -10.38191919   3.48960241   4.58380918
 C  -8.25821938   3.62653789   7.74852691
 C  -8.91898858   2.98328776   8.79166735
 H  -9.71176158   3.50202515   9.32243397
 C  -7.21822910   2.94710211   7.10717455
 H  -6.67702646   3.44101018   6.30906398
 C  -8.58585413   1.68003651   9.16048583
 H  -9.12656395   1.19888955   9.96693274
 C  -6.87797712   1.64850595   7.47406171
 H  -6.07400556   1.14594525   6.94793419
 C  -7.56428117   1.00615382   8.49924687
 H  -7.30219530  -0.00692513   8.78326568
 N  -8.33478981   4.42823785   4.46485043
 H  -7.57986441   4.90615469   4.92976545
 C  -7.90965584   3.60984276   3.35306407
 H  -8.36873226   2.62126805   3.44974533
 C  -6.38753499   3.48623686   3.49051679
 C  -8.32320913   4.22050151   2.01953544
 H  -7.99391487   3.59294757   1.18952351
 H  -7.88561621   5.21448647   1.89929495
 H  -9.40905470   4.31126187   1.98158528
 O  -5.75694919   4.19405310   4.26365103
 N  -5.79353310   2.56983529   2.70504703
 H  -6.29986859   1.98033221   2.06200105
 C  -4.36565284   2.35304752   2.76468547
 H  -3.86911258   3.32571967   2.75570486
 C  -4.00998564   1.55736692   1.50407064
 C  -3.94885266   1.60676036   4.03151392
 H  -2.86863234   1.45354853   4.05284709
 H  -4.44565567   0.63411351   4.08752892
 H  -4.24471349   2.19674945   4.89877185
 O  -4.85067544   0.93711139   0.87587261
 N  -2.70057678   1.55361658   1.17201118
 H  -1.99765359   2.02646714   1.71812444
 C  -2.22255401   0.75532945   0.06824995
 H  -2.72087069  -0.21825874   0.10448032
 C  -0.71517746   0.57921762   0.27244415
 C  -2.55749204   1.40677127  -1.28286697
 H  -3.60271655   1.71803020  -1.21746183
 H  -1.95083020   2.30614860  -1.41102537
 O  -0.07385850   1.33595053   0.98777375
 C  -2.37420133   0.44832285  -2.42503912
 C  -1.29376033   0.53569830  -3.29998013
 H  -0.56010859   1.32293999  -3.17404815
 C  -3.27457519  -0.59929274  -2.59783922
 H  -4.10402079  -0.68168551  -1.90142046
 C  -1.10517003  -0.39879500  -4.31328529
 H  -0.24805767  -0.33395916  -4.97416729
 C  -3.11522452  -1.52785819  -3.62159804
 H  -3.83308938  -2.33173146  -3.73834028
 O  -1.79682573  -2.30592542  -5.50470520
 H  -2.49699981  -2.96363626  -5.51333351
 C  -2.02230923  -1.42680818  -4.48416318
 N  -0.17387717  -0.45482138  -0.40759785
 H  -0.74390989  -0.94530271  -1.08030759
 C   1.25014765  -0.71875659  -0.37473091
 H   1.65375548  -0.01632814   0.35664133
 C   1.86475109  -0.37673911  -1.73566255
 C   1.57248222  -2.14805588   0.03057642
 H   1.22144853  -2.82760864  -0.74816525
 H   2.65986958  -2.24961052   0.05814191
 O   2.24254274  -1.21963632  -2.53598529
 C   0.99756136  -2.57223039   1.38153573
 H  -0.09432239  -2.57599365   1.30117031
 C   1.45443475  -3.99212576   1.70049872
 H   2.54185764  -4.02545691   1.80513024
 H   1.01435683  -4.34888204   2.63491738
 H   1.16822150  -4.68722124   0.90742159
 C   1.39651009  -1.61176766   2.49700469
 H   2.48736706  -1.57136567   2.58942426
 H   1.03296328  -0.59955970   2.32642868
 H   0.99294185  -1.95261345   3.45404667
 N   1.87268027   0.96295532  -2.02525826
 H   1.87232135   1.60437382  -1.24865918
 C   2.61162375   1.43449476  -3.19134020
 H   2.56647521   0.63931598  -3.93624786
 C   4.04990089   1.70555155  -2.76703905
 C   1.98366732   2.71628837  -3.73724602
 H   0.91058904   2.54339678  -3.83762710
 H   2.11981826   3.50724752  -3.00010773
 O   4.29588872   2.37682275  -1.78296105
 C   2.54625385   3.14187013  -5.09157365
 H   2.36445034   2.37398342  -5.84716273
 H   3.63016777   3.29708053  -5.03799392
 C   1.92496641   4.40624495  -5.61362185
 O   1.52317935   4.57035166  -6.73626774
 O   1.88447690   5.38221230  -4.67805361
 N   5.02156363   1.14813263  -3.55062943
 H   4.74921535   0.89974370  -4.49002668
 C   6.36912747   1.65323427  -3.45187704
 H   6.53135714   1.98594295  -2.42554197
 C   6.59614110   2.88869930  -4.40883577
 C   7.41191217   0.61429654  -3.84595526
 H   8.38609871   1.11273691  -3.83897212
 H   7.22251063   0.28559616  -4.86889663
 O   7.55224370   3.60015576  -4.08560252
 C   7.44092472  -0.57868413  -2.90081057
 H   6.47789818  -1.09065404  -2.89799129
 H   7.61033148  -0.22321991  -1.87906374
 C   8.53142915  -1.56391477  -3.26398911
 H   8.62787023  -2.34293931  -2.49839662
 H   9.48442551  -1.03401857  -3.32008394
 N   8.23535922  -2.16061715  -4.58598718
 H   7.26118822  -2.39502196  -4.72139742
 N   10.31353468  -3.23503929  -4.69160481
 H   11.01032623  -3.64005086  -5.29624537
 H   10.65707738  -2.59840979  -3.99185904
 N   8.62287760  -3.73060530  -6.24171786
 H   9.31175344  -4.20555186  -6.80462308
 H   7.86042227  -3.32506604  -6.76736199
 C   9.07439482  -3.02868991  -5.17477423
 O   5.81436324   2.98329908  -5.37921642
 H   1.49274120   6.15318459  -5.10666812
