21
conf-102
 N  -9.58562930   4.86447435   4.73457892
 H  -10.52478333   4.50441358   4.55856346
 H  -9.58931196   5.49943275   5.53356040
 H  -8.96895660   4.06588028   4.91758338
 C  -9.03120591   5.53865412   3.54754221
 H  -9.83016463   6.06268896   3.01737730
 C  -8.42024813   4.46407189   2.65700321
 C  -7.96630165   6.56057494   3.95395831
 H  -7.54067707   7.00883371   3.05418407
 H  -7.15453528   6.03788237   4.46677953
 O  -8.02398273   3.40422240   3.13984954
 C  -8.53328721   7.63395256   4.84904068
 C  -9.44055731   8.56421620   4.34548003
 H  -9.70656897   8.51685929   3.29570365
 C  -8.21373606   7.67959303   6.20226113
 H  -7.52487143   6.94759462   6.61268199
 C  -9.99445190   9.53934306   5.16851046
 H  -10.68951318   10.25912660   4.75119202
 C  -8.77597404   8.64149963   7.03697515
 H  -8.51618930   8.65576735   8.08893746
 C  -9.66576084   9.57832102   6.52026139
 H  -10.10031702   10.33244568   7.16646647
 N  -8.29506721   4.76095828   1.34867348
 H  -8.67140777   5.62393020   0.99771304
 C  -7.80119107   3.79483767   0.37433115
 H  -8.08503352   2.80586011   0.75157206
 C  -6.26791901   3.85027020   0.31118213
 C  -8.43285235   4.06278865  -0.97913199
 H  -8.05473556   3.36053363  -1.72198943
 H  -8.19347410   5.07394937  -1.31340049
 H  -9.51679505   3.95044475  -0.90855797
 O  -5.65498610   4.11319435  -0.71928595
 N  -5.62918626   3.61965937   1.48873126
 H  -6.15389095   3.18095416   2.23430828
 C  -4.19391837   3.43650611   1.51101690
 H  -3.77192923   4.16324064   0.81000316
 C  -3.83256009   2.02335078   1.02333141
 C  -3.65473802   3.68147850   2.91430519
 H  -2.56508662   3.61015185   2.93454158
 H  -4.05914078   2.94329972   3.61121841
 H  -3.94648581   4.67723003   3.24973093
 O  -4.60834948   1.08646609   1.07597192
 N  -2.56705791   1.89495061   0.55120554
 H  -1.89454611   2.64226689   0.59144130
 C  -2.08690906   0.63959962   0.02326929
 H  -2.35630412  -0.15675850   0.72460528
 C  -0.56513466   0.76057899  -0.05846350
 C  -2.72297364   0.27299933  -1.33232454
 H  -2.32188780  -0.69359921  -1.64731570
 H  -3.78862088   0.14646633  -1.14678422
 O   0.00460727   1.83525318   0.10555771
 C  -2.52316502   1.31135413  -2.39538871
 C  -3.45172372   2.34942039  -2.54809454
 H  -4.31203677   2.40560815  -1.89214519
 C  -1.42500904   1.29100010  -3.25477532
 H  -0.68505803   0.50495462  -3.15847243
 C  -3.28658667   3.33667973  -3.51813577
 H  -4.00151176   4.14204825  -3.62125660
 C  -1.26092833   2.26440299  -4.24038345
 H  -0.39522821   2.22340634  -4.89198597
 O  -2.06940285   4.28775346  -5.29701527
 H  -1.19730927   4.23677797  -5.70361477
 C  -2.18418202   3.30064754  -4.36244454
 N   0.09442889  -0.38279714  -0.34860618
 H  -0.42308039  -1.24099510  -0.40693496
 C   1.55115541  -0.46746454  -0.35836479
 H   1.90849499   0.20891017   0.42275002
 C   2.08125825   0.05388614  -1.69353836
 C   2.03827763  -1.88358013  -0.09945424
 H   1.71643246  -2.52843210  -0.91779561
 H   3.12986185  -1.87098097  -0.13651209
 O   2.46258693  -0.69074877  -2.60095236
 C   1.59956063  -2.48421250   1.23365946
 H   0.50728466  -2.58049848   1.22166679
 C   2.19721708  -3.88006637   1.38101116
 H   3.28807223  -3.82283024   1.41945024
 H   1.85314997  -4.36257329   2.29904507
 H   1.92176054  -4.52276216   0.54129516
 C   1.99145887  -1.60097819   2.41247938
 H   3.07663768  -1.45657116   2.43314856
 H   1.51484466  -0.61831388   2.36850852
 H   1.70067041  -2.07045510   3.35586195
 N   2.09250309   1.39495013  -1.82469577
 H   1.65956898   1.96105699  -1.10361972
 C   2.58530371   2.03831660  -3.03338855
 H   2.29334616   1.38589581  -3.86632985
 C   4.11487312   2.12164911  -2.97227254
 C   1.94716000   3.40973477  -3.19220354
 H   0.87967052   3.29297547  -2.97221840
 H   2.35346334   4.09089736  -2.44624973
 O   4.71819248   3.16665232  -2.77955594
 C   2.13856142   3.99760128  -4.58873893
 H   1.82470788   3.29576252  -5.36344780
 H   3.19833779   4.20391789  -4.75756414
 C   1.38856043   5.28943748  -4.74835315
 O   1.27359121   6.14164716  -3.90543684
 O   0.85952591   5.41694097  -5.98967163
 N   4.75898657   0.94028554  -3.12677115
 H   4.23486495   0.07569225  -3.18204439
 C   6.19214248   0.87745892  -3.02197643
 H   6.63262393   1.68407777  -3.61189440
 C   6.61091272  -0.49044046  -3.64293230
 C   6.70759116   0.93366380  -1.58764376
 H   6.09936478   0.26952707  -0.97108652
 H   6.57336138   1.94029878  -1.20110618
 O   7.09512508  -0.47011866  -4.77395427
 C   8.18288816   0.48661189  -1.54378767
 H   8.82329193   1.32438721  -1.25763486
 H   8.49555036   0.20248035  -2.55249172
 C   8.41919936  -0.68611382  -0.58873492
 H   7.61204031  -1.41415728  -0.66106566
 H   8.42295550  -0.32646290   0.44242571
 N   9.70181289  -1.38067128  -0.80671951
 H   10.52200043  -0.83922109  -0.57356764
 N   8.88394979  -2.73833264  -2.53597172
 H   9.09134875  -3.31699954  -3.33798733
 H   7.96805593  -2.28565177  -2.56216024
 N   11.17840867  -2.67823007  -2.01198767
 H   11.28964404  -3.52784948  -2.55003982
 H   11.78177869  -2.63926851  -1.19794796
 C   9.89240512  -2.27356805  -1.79946734
 O   6.40992799  -1.47734519  -2.91090017
 H   0.42752183   6.28177880  -6.01125023
