21
conf-684
 N  -11.67259902   3.75684007   2.96011076
 H  -12.00854510   2.96516156   2.41008987
 H  -12.31023090   4.54909006   2.87502469
 H  -11.59976819   3.45418106   3.93784168
 C  -10.30754131   4.14828631   2.57083786
 H  -10.16025485   3.96295205   1.50398038
 C  -9.34000418   3.30122943   3.39715558
 C  -10.06421039   5.63508264   2.84193091
 H  -9.03507383   5.87915485   2.56996787
 H  -10.16736393   5.81982767   3.91401897
 O  -9.68486688   2.79011486   4.45267018
 C  -11.02311382   6.51152051   2.07610141
 C  -10.94198221   6.59741689   0.68761601
 H  -10.16308697   6.04400815   0.17577993
 C  -12.04073195   7.20037126   2.72819125
 H  -12.12880686   7.12635214   3.80792128
 C  -11.83842018   7.37982042  -0.03312068
 H  -11.74796395   7.43992118  -1.11180471
 C  -12.95232247   7.97268877   2.01371695
 H  -13.73957919   8.49777266   2.54186408
 C  -12.85045880   8.06816786   0.62913563
 H  -13.55520339   8.67370294   0.07073388
 N  -8.08102006   3.20032149   2.91832895
 H  -7.77104356   3.66658849   2.08012988
 C  -7.04170387   2.52519569   3.66236435
 H  -7.07700973   2.85353549   4.70354986
 C  -5.72993091   2.96891487   3.02024986
 C  -7.19413085   1.00123016   3.63261597
 H  -6.31977544   0.52813565   4.08719951
 H  -7.27165105   0.65144941   2.60154000
 H  -8.09733555   0.71424179   4.16574287
 O  -5.68291945   3.41550325   1.88097332
 N  -4.62385709   2.82554780   3.80197629
 H  -4.71628704   2.20765054   4.58988585
 C  -3.29781762   2.82013517   3.20240721
 H  -3.28381675   3.62047518   2.46129381
 C  -3.06686525   1.47330963   2.50633633
 C  -2.24579276   3.05139293   4.27677031
 H  -1.24297623   3.08442950   3.84472093
 H  -2.27674935   2.24303787   5.01144213
 H  -2.43693832   3.99603908   4.78741456
 O  -3.58402224   0.44192291   2.90861473
 N  -2.24555554   1.52343877   1.42450852
 H  -1.65256763   2.32152568   1.26535948
 C  -1.86702065   0.32997191   0.70982266
 H  -2.10134922  -0.52628256   1.34332124
 C  -0.36766945   0.42704292   0.43776044
 C  -2.63264350   0.18753455  -0.61724186
 H  -2.40770520   1.05852658  -1.24043921
 H  -2.25235751  -0.69223805  -1.14542129
 O   0.21666053   1.50673643   0.43899638
 C  -4.12074889   0.06875554  -0.42845371
 C  -4.75876065  -1.17147299  -0.43027724
 H  -4.18295075  -2.07351925  -0.59751803
 C  -4.90582687   1.21104759  -0.21916508
 H  -4.42808149   2.18479726  -0.19536303
 C  -6.13545106  -1.28281076  -0.23138251
 H  -6.62247248  -2.24884666  -0.23489877
 C  -6.28086552   1.11513073  -0.02257635
 H  -6.86182863   2.00781351   0.16883436
 O  -8.24092794  -0.27032226   0.19874128
 H  -8.61594176   0.61483752   0.22910094
 C  -6.89132804  -0.13448778  -0.03385070
 N   0.25939681  -0.74243111   0.17889280
 H  -0.29196718  -1.56753360   0.02152074
 C   1.67352977  -0.77945173  -0.17677152
 H   2.15253502  -0.02652642   0.45244725
 C   1.83420767  -0.39356743  -1.64380567
 C   2.27220830  -2.14061355   0.12552677
 H   2.09662746  -2.33540261   1.18683882
 H   1.73674769  -2.90257928  -0.44559709
 O   1.93033779  -1.21596482  -2.54889510
 C   3.77636008  -2.26501421  -0.15715120
 H   3.91071611  -2.28093271  -1.24189404
 C   4.56508261  -1.08370490   0.39998192
 H   4.34930763  -0.94407246   1.46425462
 H   5.63805728  -1.26053958   0.29569817
 H   4.33171318  -0.15368600  -0.12511177
 C   4.28427963  -3.58662930   0.41329627
 H   4.19626969  -3.58844155   1.50234288
 H   3.71039218  -4.43001769   0.02259951
 H   5.33395593  -3.74707159   0.15697295
 N   1.81958832   0.94027497  -1.87569573
 H   1.65612993   1.57179167  -1.10438264
 C   2.13943810   1.47036726  -3.17639602
 H   1.64474683   0.83790992  -3.91945816
 C   3.65610213   1.38982842  -3.44392289
 C   1.64657705   2.90905237  -3.31354525
 H   2.17617078   3.52482705  -2.58428258
 H   1.91659414   3.28161210  -4.30190141
 O   4.50070251   1.23172883  -2.58142787
 C   0.13817028   3.05924894  -3.10530343
 H  -0.12349076   4.12055246  -3.12022225
 H  -0.17258427   2.66081410  -2.13495116
 C  -0.68184277   2.38390233  -4.16136923
 O  -1.60895455   1.63710878  -3.96348201
 O  -0.29401565   2.72085305  -5.41436817
 N   3.99438987   1.55647436  -4.75261765
 H   3.29330949   1.60592206  -5.46793838
 C   5.36876013   1.45555731  -5.16776445
 H   5.98552447   2.03828224  -4.48478257
 C   5.42586137   2.06559876  -6.60253267
 C   5.86303421   0.02239155  -5.26511050
 H   5.14317479  -0.53675582  -5.86646418
 H   5.88038181  -0.43141539  -4.27748078
 O   5.99316290   3.15441942  -6.72922798
 C   7.24084490  -0.00451196  -5.93759249
 H   8.01961310  -0.01925121  -5.17061911
 H   7.38873490   0.91078815  -6.51127684
 C   7.41244820  -1.19684549  -6.87044618
 H   7.19621613  -2.13530403  -6.34909895
 H   8.44652264  -1.25382191  -7.22359726
 N   6.50937172  -1.03144464  -8.02173201
 H   5.86293039  -0.24725805  -7.99237385
 N   7.00910812  -3.12215681  -8.90484869
 H   7.03423190  -3.70625371  -9.72442916
 H   7.82030345  -3.16872789  -8.31028885
 N   5.38873525  -1.75788910  -9.91859512
 H   5.44630818  -2.32914397  -10.74708937
 H   5.07997300  -0.80691823  -10.07771966
 C   6.32706280  -1.95587798  -8.95734564
 O   4.87081776   1.36394674  -7.47645109
 H  -0.89405108   2.25933590  -6.01261836
