21
conf-399
 N  -7.58156604   1.55857575   7.93636735
 H  -8.05651197   0.79857326   8.42563265
 H  -7.66452729   2.43143418   8.45854228
 H  -6.59559611   1.29462616   7.82766516
 C  -8.09385652   1.72543745   6.56574696
 H  -9.16663151   1.51658339   6.54237311
 C  -7.33839644   0.75012265   5.67160682
 C  -7.86328602   3.15795119   6.07132048
 H  -8.17466896   3.22087584   5.02724882
 H  -6.79072594   3.36683276   6.10119287
 O  -6.22618289   0.35298590   5.97855426
 C  -8.60819237   4.16535187   6.90654342
 C  -9.99993550   4.22937251   6.85915113
 H  -10.53129957   3.55999460   6.19184806
 C  -7.93202347   5.00589833   7.78524334
 H  -6.84940991   4.95284871   7.84784588
 C  -10.69977986   5.13629695   7.64874986
 H  -11.78142997   5.17542577   7.58588881
 C  -8.62546477   5.90479557   8.59107104
 H  -8.07815124   6.54719399   9.27092439
 C  -10.01345514   5.97546369   8.52146374
 H  -10.55596473   6.67839239   9.14329534
 N  -7.97086180   0.38109767   4.51764367
 H  -8.73110328   0.97285007   4.22222646
 C  -7.17636258  -0.11854063   3.40733124
 H  -6.28586943  -0.56943371   3.84335100
 C  -6.76864516   1.07628400   2.53112613
 C  -7.95218554  -1.14313345   2.59172598
 H  -7.33577453  -1.53428154   1.77839377
 H  -8.84602407  -0.68838451   2.15565015
 H  -8.25928675  -1.97391970   3.22794496
 O  -7.43852893   2.09512809   2.46673013
 N  -5.64494894   0.90080355   1.80169656
 H  -5.11885092   0.04043778   1.80468637
 C  -5.19854504   1.90840812   0.86817045
 H  -6.06138879   2.27914013   0.30953616
 C  -4.22941267   1.19973184  -0.07457192
 C  -4.53975684   3.09107381   1.57672350
 H  -4.18841283   3.82312468   0.84696438
 H  -3.68756511   2.75536203   2.17338573
 H  -5.26521406   3.56127869   2.23823716
 O  -3.73560051   0.11674697   0.21384793
 N  -3.95049485   1.84764040  -1.23068025
 H  -4.25202680   2.79943279  -1.34380020
 C  -2.94973037   1.32219223  -2.15767631
 H  -3.11603105   0.24277305  -2.19506213
 C  -1.55758194   1.59596390  -1.59393051
 C  -3.12431427   1.92858369  -3.55049891
 H  -4.18628139   1.87928645  -3.79699912
 H  -2.83124626   2.97881940  -3.51219894
 O  -0.94822090   2.64714141  -1.80786612
 C  -2.33551739   1.18379371  -4.59931535
 C  -0.97701795   1.43905151  -4.81394190
 H  -0.48873329   2.21517617  -4.23753338
 C  -2.93887324   0.18260850  -5.36291627
 H  -3.99170926  -0.02819272  -5.22700911
 C  -0.24863007   0.70976735  -5.74932503
 H   0.80087524   0.90389774  -5.92337320
 C  -2.21876188  -0.54972533  -6.30478917
 H  -2.71600480  -1.32111002  -6.88325339
 O  -0.09796178  -0.95923475  -7.39881754
 H  -0.63605678  -1.61442056  -7.84947633
 C  -0.86729509  -0.28414445  -6.49598904
 N  -1.05643422   0.61305774  -0.81949510
 H  -1.70408031  -0.07584504  -0.45573548
 C   0.23962084   0.77490694  -0.18734088
 H   0.33635484   1.84064342   0.04821148
 C   1.33042753   0.39090552  -1.18842518
 C   0.33936585  -0.02891682   1.09699700
 H  -0.52452277   0.23731783   1.71370874
 H   0.26013708  -1.09136110   0.85679263
 O   1.89253544  -0.69312435  -1.18814339
 C   1.62257100   0.21718419   1.90260181
 H   2.46145666  -0.18870310   1.32869921
 C   1.87993707   1.70568705   2.12247177
 H   0.99464066   2.19270620   2.54380043
 H   2.70877836   1.85024523   2.81922337
 H   2.14377855   2.21078172   1.19070170
 C   1.53238790  -0.53112410   3.22895684
 H   0.72220972  -0.12510547   3.83914685
 H   1.34041599  -1.59402032   3.06724603
 H   2.46234433  -0.43931453   3.79449752
 N   1.61687788   1.33561424  -2.12073900
 H   1.16762118   2.23740055  -2.04158982
 C   2.86164742   1.22733097  -2.86268470
 H   2.83321937   0.28285155  -3.41269740
 C   4.03691164   1.19318226  -1.87415447
 C   2.96447830   2.40474786  -3.83395296
 H   2.05536367   2.39560028  -4.44669833
 H   2.95562640   3.32812198  -3.24647172
 O   4.02512423   1.80635467  -0.82033694
 C   4.19056368   2.39849599  -4.75258533
 H   5.11934582   2.41019614  -4.18710979
 H   4.16031733   3.29507829  -5.37714065
 C   4.15737962   1.22038277  -5.67580731
 O   3.32934406   1.05061407  -6.53480173
 O   5.14812594   0.33090924  -5.44173465
 N   5.08322939   0.40170298  -2.24737592
 H   5.15618047   0.16463954  -3.23175268
 C   6.33944653   0.54605888  -1.56034871
 H   6.14818184   0.60073523  -0.49118345
 C   7.04092825   1.87516561  -2.02460692
 C   7.30206094  -0.57180480  -1.91775154
 H   7.39147709  -0.60274360  -3.00943605
 H   6.88943270  -1.52682882  -1.59651855
 O   7.18883454   1.97841167  -3.26057735
 C   8.66542485  -0.32916749  -1.28446518
 H   8.57624186  -0.37490657  -0.19816164
 H   9.00985127   0.67698904  -1.53831791
 C   9.70755973  -1.34083766  -1.73100380
 H   10.69491322  -1.07879673  -1.32830064
 H   9.80513718  -1.31870216  -2.81900569
 N   9.34778542  -2.72645631  -1.37814674
 H   9.37202929  -3.39733260  -2.12981066
 N   9.80775043  -2.42062470   0.88923225
 H   10.17201060  -2.85446814   1.72350381
 H   10.25296675  -1.54819102   0.64368238
 N   9.23535053  -4.54987303   0.06768763
 H   8.98300166  -4.79412236   1.01674507
 H   8.63575437  -4.99373166  -0.61906475
 C   9.47100691  -3.22417698  -0.14210229
 O   7.39206310   2.65331652  -1.13008391
 H   5.06838557  -0.36961588  -6.10068551
