21
conf-197
 N  -11.44252468   1.93789872   7.48382962
 H  -12.21860347   1.78671943   6.83946647
 H  -11.78885078   2.40411946   8.31927362
 H  -11.09248503   1.01745334   7.74203991
 C  -10.37498098   2.71737650   6.82659843
 H  -10.80116654   3.65380030   6.44476186
 C  -9.88656907   1.91875092   5.61405779
 C  -9.24593046   3.08275338   7.80150320
 H  -9.70402884   3.62283242   8.63643640
 H  -8.57647632   3.78685481   7.29870587
 O  -10.48567449   0.93110718   5.22229214
 C  -8.46827170   1.90049161   8.31190654
 C  -8.90854231   1.17134688   9.41322360
 H  -9.81359456   1.47719876   9.92963545
 C  -7.28075207   1.50374282   7.68972865
 H  -6.91146364   2.07312562   6.84483563
 C  -8.21104749   0.04855353   9.85877750
 H  -8.58442410  -0.50857573   10.70989138
 C  -6.57736307   0.38769753   8.13250976
 H  -5.66538577   0.10164721   7.61866673
 C  -7.04281026  -0.34938938   9.21662464
 H  -6.49841066  -1.22168220   9.56078823
 N  -8.78938265   2.39723020   4.98687619
 H  -8.19675564   3.09925236   5.39984302
 C  -8.15296342   1.64353962   3.93261015
 H  -8.30100372   0.57652223   4.12561602
 C  -6.66028725   1.97640436   4.02835404
 C  -8.73922630   1.98003077   2.56509407
 H  -8.24006266   1.41333340   1.77488620
 H  -8.62268699   3.04701382   2.34987782
 H  -9.80126688   1.73638670   2.55805291
 O  -6.24643708   2.87939787   4.74328841
 N  -5.84425627   1.22212651   3.27174033
 H  -6.17919313   0.45245642   2.71290580
 C  -4.41089792   1.43347493   3.27410781
 H  -4.23343378   2.51088133   3.24358830
 C  -3.89893916   0.76171693   2.00195029
 C  -3.74740535   0.85577913   4.52130972
 H  -2.67340937   1.05087260   4.50975859
 H  -3.91010102  -0.22363057   4.57635268
 H  -4.18859121   1.32067963   5.40325230
 O  -4.46974647  -0.20374572   1.51962870
 N  -2.77593788   1.29385230   1.46016870
 H  -2.19648618   1.95189001   1.95626597
 C  -2.24233721   0.80625115   0.21210691
 H  -2.57405010  -0.22606423   0.09525048
 C  -0.71677622   0.90945586   0.30746672
 C  -2.74618924   1.62750610  -0.99491212
 H  -2.30824022   2.62734870  -0.93146338
 H  -2.36747801   1.16249912  -1.90836673
 O  -0.17368687   1.66795508   1.09208460
 C  -4.24672963   1.74705085  -1.04372970
 C  -4.89047851   2.79755136  -0.38269349
 H  -4.29491065   3.52970182   0.15280879
 C  -5.04365457   0.81904572  -1.71554766
 H  -4.57604912   0.00105339  -2.25394460
 C  -6.27989753   2.90268414  -0.36118429
 H  -6.76610717   3.71856263   0.15886511
 C  -6.43651750   0.91300315  -1.70495769
 H  -7.03198636   0.17595625  -2.23131626
 O  -8.41613133   2.08635739  -0.94015063
 H  -8.82053192   1.34726262  -1.40147620
 C  -7.05061318   1.95337157  -1.01631923
 N  -0.02586564   0.15624557  -0.57270009
 H  -0.47178936  -0.45492826  -1.24068680
 C   1.42019274   0.20883591  -0.62718168
 H   1.72017357   1.25424019  -0.52984211
 C   1.80655639  -0.34823135  -1.99103600
 C   2.04630135  -0.58683592   0.52342505
 H   1.55820952  -0.24557627   1.43933387
 H   1.77993095  -1.63921652   0.39493663
 O   1.09575790  -1.15084851  -2.57112368
 C   3.56163660  -0.44610960   0.69252050
 H   4.04932097  -0.84754392  -0.18843257
 C   3.96861129   1.01316191   0.87155194
 H   3.36596151   1.47044643   1.66420078
 H   5.02027975   1.09201288   1.15656770
 H   3.83207204   1.60313718  -0.03828523
 C   4.00685900  -1.27876929   1.89394294
 H   3.55338937  -0.89310049   2.80957055
 H   3.71051127  -2.32384228   1.78257692
 H   5.09182213  -1.24746436   2.01261617
 N   2.98252554   0.10911273  -2.51041351
 H   3.65986221   0.46248714  -1.85568821
 C   3.52573751  -0.52636251  -3.68973386
 H   2.67790274  -0.92194033  -4.25566507
 C   4.41940393  -1.70430574  -3.29236316
 C   4.31125083   0.43505103  -4.58394977
 H   5.14479903   0.85605154  -4.01632461
 H   4.75171542  -0.13907402  -5.40129405
 O   4.90488812  -1.83564834  -2.17610207
 C   3.46087252   1.56390761  -5.16331414
 H   4.09876955   2.22703351  -5.75599292
 H   2.99831686   2.17077267  -4.38176607
 C   2.36162022   1.08432951  -6.06697876
 O   1.22254909   1.47687941  -6.05750678
 O   2.79417889   0.15230138  -6.95199104
 N   4.64674778  -2.57420018  -4.31277575
 H   4.54800274  -2.24944962  -5.26838947
 C   5.71434428  -3.53124489  -4.25223176
 H   6.46041945  -3.22645158  -3.50378385
 C   6.37008836  -3.49693670  -5.67562366
 C   5.26488548  -4.96020062  -3.95289293
 H   6.13019180  -5.61026260  -4.10756570
 H   4.49811961  -5.26625184  -4.66721017
 O   7.35592237  -4.21026905  -5.85691461
 C   4.74604862  -5.11818435  -2.53216742
 H   3.90477119  -4.45068621  -2.35739003
 H   5.53245232  -4.81740718  -1.83076387
 C   4.34404977  -6.54813109  -2.23213664
 H   4.09642280  -6.66487686  -1.17091959
 H   5.18079774  -7.21311780  -2.45337623
 N   3.19124960  -6.92238752  -3.08102018
 H   2.50984574  -6.18629989  -3.19715953
 N   3.36095114  -9.19134731  -2.55724023
 H   2.84768629  -10.02752058  -2.32480248
 H   4.11025108  -8.96119242  -1.92301550
 N   1.46511174  -8.36738919  -3.66804002
 H   1.28908150  -9.31453379  -3.97296949
 H   1.18069158  -7.67337620  -4.34850989
 C   2.67515765  -8.15857082  -3.08684305
 O   5.80669121  -2.71424226  -6.47653442
 H   2.03342958  -0.06579076  -7.50620742
