75
77
N         -1.28976       -1.84053        0.19248
H         -1.03383       -1.71707       -0.78599
H         -0.44969       -1.62461        0.73356
C         -2.30081       -0.83748        0.52710
H         -3.21701       -1.08927       -0.02608
C         -1.87267        0.55374        0.01259
C         -2.57947       -0.96774        2.04263
H         -2.59783       -2.04209        2.24353
H         -1.73674       -0.54972        2.60112
O         -1.27984        0.62871       -1.08023
C         -3.85184       -0.30702        2.54044
N         -4.85307       -1.13623        2.90563
H         -5.71101       -0.73552        3.26099
H         -4.75714       -2.14018        2.89242
O         -3.97597        0.92197        2.61162
N         -2.09879        1.64869        0.76132
H         -2.74405        1.57960        1.56515
C         -1.63811        2.94063        0.28849
H         -2.01036        3.11326       -0.72674
C         -0.10883        2.99097        0.19492
C         -2.15870        4.08478        1.18407
H         -1.93992        3.84764        2.23114
H         -1.58426        4.98242        0.92981
O          0.44473        3.79388       -0.59007
C         -3.63588        4.33473        0.97969
C         -4.57958        3.93285        1.92822
H         -4.25467        3.43598        2.83617
C         -4.07829        4.95636       -0.19563
H         -3.34994        5.27971       -0.93752
C         -5.94098        4.14702        1.70581
H         -6.66269        3.82930        2.45238
C         -5.43590        5.17186       -0.41993
H         -5.76456        5.66262       -1.33162
C         -6.37253        4.76626        0.53383
H         -7.43143        4.93662        0.36368
N          0.55922        2.18830        1.02175
H          0.05301        1.44751        1.50912
C          2.01381        2.07300        1.11076
H          2.43375        3.08455        1.12436
C          2.63052        1.30864       -0.08641
C          2.37831        1.34406        2.41028
H          1.97806        1.90957        3.25951
H          3.46475        1.31500        2.50956
O          3.16264        0.21340        0.06515
C          1.77740       -0.05710        2.46881
N          2.58934       -1.05059        2.88048
H          2.21906       -1.99251        2.85423
H          3.59069       -0.95108        2.79291
O          0.57381       -0.24270        2.23228
N          2.54799        1.95846       -1.27106
H          2.06991        2.85652       -1.28208
C          3.17739        1.45828       -2.47778
H          3.52311        0.44582       -2.23568
C          4.42673        2.26200       -2.84971
C          2.19090        1.41715       -3.64955
H          1.78195        2.42923       -3.77179
H          2.74549        1.20305       -4.56615
O          4.81781        2.42435       -3.98293
C          1.05989        0.40251       -3.43280
H          1.34219       -0.57608       -3.83760
H          0.86513        0.26071       -2.36457
C         -0.25569        0.84239       -4.08449
H         -0.10474        1.07468       -5.14203
H         -1.00816        0.05295       -4.01376
N         -0.77777        2.02486       -3.38778
H         -0.96793        1.84796       -2.39301
N         -0.87586        3.51752       -5.17226
H         -0.67627        4.43692       -5.53566
H         -1.11748        2.79417       -5.83160
N         -0.85999        4.29727       -2.98723
H         -1.10487        5.21999       -3.31602
H         -0.43682        4.20123       -2.04706
C         -0.83087        3.26904       -3.84718
O          5.06520        2.74747       -1.76494
H          5.86761        3.19457       -2.09634
