21
conf-472
 N  -5.04595492  -6.17852146  -4.02236338
 H  -5.96382778  -5.93871830  -3.64206143
 H  -5.09889112  -6.08943078  -5.04056746
 H  -4.78406107  -7.13021710  -3.77993687
 C  -4.06319184  -5.19433386  -3.53641532
 H  -3.62081764  -5.53269997  -2.59021930
 C  -4.80172930  -3.88441332  -3.26615118
 C  -2.92729056  -5.01746732  -4.55410921
 H  -2.29161261  -4.18045278  -4.24269558
 O  -6.01549506  -3.80152210  -3.36809858
 C  -2.08013723  -6.25668037  -4.69332761
 H  -1.60933493  -6.51799284  -3.74197132
 H  -1.30083522  -6.09365740  -5.43887937
 H  -2.68745007  -7.10098538  -5.02180891
 O  -3.47139054  -4.73926570  -5.84798485
 H  -3.84439863  -3.85456238  -5.83959727
 N  -4.01537065  -2.85350980  -2.87450545
 H  -3.01248624  -2.90181790  -2.94410512
 C  -4.52780683  -1.52762767  -2.63154733
 H  -5.46127736  -1.40608110  -3.18500277
 C  -3.45103427  -0.56803477  -3.12686985
 C  -4.81358044  -1.28747171  -1.14008590
 H  -3.87217667  -1.36907220  -0.58903549
 H  -5.16996823  -0.26123785  -1.01773551
 O  -2.29334391  -0.94127297  -3.29227737
 C  -5.81583486  -2.26148845  -0.58356204
 C  -7.18396945  -1.99922719  -0.64325488
 H  -7.52865609  -1.06326921  -1.07367574
 C  -5.39506908  -3.46893533  -0.01895248
 H  -4.33150456  -3.68984523   0.01179968
 C  -8.11166446  -2.92246310  -0.16385862
 H  -9.16987970  -2.69560637  -0.22433194
 C  -6.31899029  -4.39400808   0.46490717
 H  -5.96766215  -5.32219348   0.89971785
 C  -7.68101833  -4.12497001   0.38995701
 H  -8.40073295  -4.84360563   0.76573939
 N  -3.84470557   0.70352636  -3.34472867
 H  -4.76335889   0.99149298  -3.05941306
 C  -2.89809007   1.74591969  -3.71601894
 H  -2.14103941   1.25563053  -4.33426857
 C  -2.23241048   2.29007581  -2.44410330
 C  -3.61349120   2.84298792  -4.47956400
 H  -2.91223664   3.63216711  -4.75819342
 H  -4.39652836   3.28611595  -3.86124019
 H  -4.05978916   2.42699589  -5.38460074
 O  -2.54890198   3.35834756  -1.93932188
 N  -1.29088086   1.48684668  -1.89781672
 H  -1.11288941   0.56207139  -2.27580729
 C  -0.59370994   1.87432502  -0.68475876
 H  -0.43430773   2.95054223  -0.69787554
 C   0.74189216   1.14678038  -0.68199632
 C  -1.42417566   1.53454375   0.56373241
 H  -1.71592663   0.48285090   0.48612273
 H  -2.33484269   2.12985800   0.51438969
 O   0.83230793  -0.03792723  -0.95959192
 C  -0.73225508   1.71331879   1.91458137
 H  -1.38420787   1.36524313   2.71741208
 H   0.18045984   1.11628125   1.95961712
 C  -0.30937716   3.14566570   2.29553174
 O  -0.28060527   3.35275108   3.52445019
 O   0.02374733   3.95225000   1.42115967
 N   1.81054880   1.91632421  -0.35070968
 H   1.61596772   2.80188514   0.09840030
 C   3.10668679   1.32671755  -0.09881848
 H   3.26877232   0.57142855  -0.86813505
 C   3.14957307   0.63555859   1.26265848
 C   4.18059420   2.40830832  -0.17128260
 H   5.16340585   1.99028735   0.05846678
 H   3.96907606   3.19135993   0.56710889
 H   4.19834017   2.86029421  -1.16240084
 O   2.42753930   0.95491920   2.20318572
 N   4.09586981  -0.34096404   1.38315123
 H   4.80717865  -0.34002387   0.67415008
 C   4.57062694  -0.69241737   2.72731390
 H   3.69063597  -0.98320349   3.29982836
 C   5.21020390   0.55110515   3.33868112
 C   5.57242279  -1.83514349   2.62537251
 H   5.08910665  -2.65173938   2.08383988
 H   6.40939197  -1.49015390   2.01321745
 O   6.11431232   1.14538413   2.74986839
 C   6.10698434  -2.37553637   3.95331832
 H   6.54051214  -1.53825232   4.51129184
 C   5.00521938  -3.01226431   4.79356554
 H   4.58985795  -3.87890193   4.27098875
 H   4.18596970  -2.31898903   5.00146846
 H   5.40264735  -3.35469379   5.75180359
 C   7.22016322  -3.38509091   3.68299689
 H   6.83488443  -4.22657382   3.10252367
 H   7.62898928  -3.77644982   4.61709932
 H   8.03815069  -2.92829393   3.12249414
 N   4.68744023   0.97496504   4.51022703
 H   4.00769072   0.41981519   5.00335645
 C   5.16952244   2.17326192   5.15861352
 H   6.17139387   2.37317104   4.76703826
 C   5.25435694   1.92068155   6.64708474
 C   4.29744895   3.41400147   4.89874629
 H   4.77389275   4.25742924   5.39872475
 H   3.31361154   3.28488067   5.35179597
 O   4.70414244   1.02770862   7.24000597
 C   4.15754715   3.70631030   3.41391555
 H   3.58109465   2.92304067   2.92481701
 H   5.15193328   3.69330648   2.96028050
 C   3.51662695   5.05148814   3.13663096
 H   3.58609633   5.28374358   2.06567283
 H   4.06694488   5.82666333   3.67556935
 N   2.11386228   5.06315751   3.56630588
 H   1.59836188   4.18454375   3.53095426
 N   1.88506981   7.37045200   3.27973965
 H   1.35973819   8.16370953   3.61573245
 H   2.88321506   7.45497231   3.38671452
 N   0.02049497   6.03756450   3.71727206
 H  -0.32794887   5.06016230   3.63299496
 H  -0.57308119   6.73446948   3.29337127
 C   1.33664900   6.14818766   3.51525458
 O   6.00707176   2.85394839   7.26321546
 H   5.98609777   2.63128137   8.20261301
