21
conf-112
 N  -5.78609845  -0.27801743  -8.06066334
 H  -6.74840099   0.00147502  -7.86668110
 H  -5.21211112   0.55751673  -8.19785539
 H  -5.74855814  -0.85811117  -8.90146620
 C  -5.20975717  -1.04973713  -6.94453449
 H  -5.93254698  -1.78593352  -6.57871671
 C  -4.80991913  -0.10203487  -5.82548226
 C  -3.97693599  -1.80673039  -7.45948702
 H  -3.23936690  -1.05530560  -7.77424708
 O  -4.31140248   0.98834145  -6.05655980
 C  -3.36416888  -2.76638341  -6.45718171
 H  -2.98482742  -2.25865212  -5.56688487
 H  -2.52911577  -3.29810017  -6.91492781
 H  -4.11248266  -3.50260369  -6.14892107
 O  -4.43601536  -2.53209024  -8.60565235
 H  -3.68295704  -2.98183684  -8.99466238
 N  -5.03103615  -0.55926325  -4.55614062
 H  -5.19150153  -1.54945058  -4.46758574
 C  -4.26740565   0.02611865  -3.44848489
 H  -4.20931632   1.09470063  -3.64800366
 C  -2.86282806  -0.60046224  -3.43696553
 C  -4.96018379  -0.24522978  -2.11303893
 H  -6.01881763  -0.01895707  -2.23403715
 H  -4.86043048  -1.31246018  -1.89895535
 O  -2.74484795  -1.82690189  -3.19890858
 C  -4.39126917   0.58863051  -0.99629513
 C  -3.17888073   0.24752173  -0.38939079
 H  -2.66518714  -0.64357834  -0.73229495
 C  -5.04648137   1.74118502  -0.56582725
 H  -5.98614496   2.01932778  -1.02661785
 C  -2.64952044   1.03417426   0.62997048
 H  -1.72098353   0.73954803   1.10019864
 C  -4.51439458   2.53207452   0.45054018
 H  -5.04544574   3.42293217   0.76789340
 C  -3.31252694   2.17884035   1.05518412
 H  -2.89536627   2.79271370   1.84665305
 N  -1.86015029   0.24766911  -3.78184293
 H  -2.10345590   1.21425729  -3.88451375
 C  -0.44203848  -0.10163652  -3.75800831
 H  -0.37976858  -1.11402798  -4.16797140
 C   0.03344508  -0.13325432  -2.29649492
 C   0.35326222   0.88788301  -4.58639348
 H   1.40784591   0.60303552  -4.61638721
 H   0.28053173   1.89064112  -4.16338440
 H  -0.03095116   0.90588095  -5.60874821
 O   0.37967410   0.87445902  -1.68719620
 N  -0.00010746  -1.36633082  -1.71880277
 H  -0.58537506  -2.03865756  -2.20216040
 C  -0.02996883  -1.46133198  -0.26068424
 H  -0.59475336  -0.59603730   0.11195453
 C   1.40165360  -1.37415210   0.26316533
 C  -0.72072851  -2.73631934   0.18729042
 H  -0.10107992  -3.58650553  -0.10191507
 H  -1.67635213  -2.83036983  -0.33965560
 O   2.09603190  -2.37188827   0.46789081
 C  -0.98528082  -2.74607541   1.68456586
 H  -0.06819820  -2.63621623   2.25414585
 H  -1.64588772  -1.91690087   1.95894359
 C  -1.73803929  -4.02486720   2.13901498
 O  -2.49471809  -4.54026271   1.30789519
 O  -1.55973860  -4.35476471   3.32647954
 N   1.85451433  -0.12191268   0.50333999
 H   1.34437082   0.64279255   0.07958990
 C   3.25855941   0.10203107   0.82160785
 H   3.83655809  -0.64571111   0.26619865
 C   3.47975628  -0.14473305   2.31724076
 C   3.65849089   1.50849268   0.41508149
 H   4.71841009   1.67745505   0.61153311
 H   3.08391173   2.24291369   0.98103276
 H   3.47282022   1.64800209  -0.65315791
 O   3.50758185   0.76662708   3.14669580
 N   3.64621447  -1.43520979   2.67251975
 H   3.45158182  -2.15367036   1.98802395
 C   3.80483014  -1.81487051   4.06266383
 H   3.23646535  -1.08680634   4.65441604
 C   5.27077003  -1.69185516   4.50029053
 C   3.30689452  -3.22787097   4.33144392
 H   3.93695953  -3.93283408   3.78676164
 H   3.46341116  -3.43101101   5.39308631
 O   5.90594925  -2.61397119   4.99068882
 C   1.84125461  -3.48689229   4.00166150
 H   1.71067328  -3.42373263   2.91383116
 C   1.47910420  -4.90130867   4.45054375
 H   1.59526871  -4.98245750   5.53361437
 H   2.13916006  -5.63722155   3.98374755
 H   0.45432464  -5.15803412   4.20088812
 C   0.92361194  -2.46196337   4.65965022
 H   1.08470542  -2.45788283   5.74153652
 H  -0.12146137  -2.70579321   4.47494395
 H   1.10487879  -1.45015263   4.28087695
 N   5.85050945  -0.48013352   4.29658506
 H   5.25468981   0.30995118   4.08440052
 C   7.16435901  -0.26211997   4.87002424
 H   7.84963350  -1.01244816   4.46144395
 C   7.09175114  -0.45210066   6.37532521
 C   7.66502362   1.14317866   4.52857769
 H   6.99719993   1.87289048   4.99411140
 H   7.57802755   1.26024169   3.44595423
 O   6.16030916  -0.14689799   7.07315262
 C   9.10378687   1.40962146   4.94723573
 H   9.75282081   0.64292017   4.51726884
 H   9.20612023   1.34638425   6.03105680
 C   9.57501150   2.77700608   4.48725992
 H   8.94080355   3.54579624   4.93778766
 H   9.47410136   2.86256350   3.39860554
 N   10.97394495   2.98932252   4.90328214
 H   11.54815087   2.15936738   4.88943990
 N   11.00292903   5.17410283   4.06617263
 H   11.42057361   6.08810155   4.12882804
 H   9.99898290   5.14864448   4.01367802
 N   12.96894736   4.16309291   4.85613440
 H   13.32458302   3.53102129   5.56003713
 H   13.41096262   5.06903606   4.84793399
 C   11.63577901   4.12325167   4.61925139
 O   8.24423312  -0.96730719   6.86551750
 H   8.11629586  -1.02479554   7.81963595
