21
conf-156
 N  -6.43485189  -0.99234143  -7.22276601
 H  -7.33788199  -0.63729353  -6.90682107
 H  -5.75318303  -0.22903023  -7.23438134
 H  -6.51533599  -1.39912942  -8.15694643
 C  -5.90037336  -2.02137317  -6.31229231
 H  -6.69716954  -2.69922687  -5.98465510
 C  -5.26786353  -1.29410295  -5.13804873
 C  -4.84378397  -2.83089034  -7.06524045
 H  -4.01423786  -2.15106419  -7.29847071
 O  -4.63166365  -0.26016441  -5.34682407
 C  -4.34647578  -4.04862115  -6.31941523
 H  -3.87917638  -3.77070417  -5.37242509
 H  -3.61181300  -4.58332828  -6.92386500
 H  -5.18491312  -4.72009532  -6.11795046
 O  -5.47792535  -3.23393240  -8.28593768
 H  -4.83523426  -3.71373911  -8.81255450
 N  -5.42024858  -1.82843422  -3.90776839
 H  -6.04837727  -2.60559844  -3.78144214
 C  -4.99466212  -1.10456906  -2.71290777
 H  -5.19787135  -0.04870646  -2.89928128
 C  -3.48711472  -1.30319946  -2.52122250
 C  -5.77728539  -1.55777905  -1.48113050
 H  -5.50430395  -2.58263814  -1.23497704
 H  -5.46704136  -0.92599543  -0.64082844
 O  -3.01915960  -2.13964680  -1.74099186
 C  -7.25864432  -1.46027804  -1.70220552
 C  -7.87724253  -0.21433564  -1.78681460
 H  -7.27672203   0.67968659  -1.65491377
 C  -8.02661201  -2.60566798  -1.88858720
 H  -7.55145502  -3.57993785  -1.83489347
 C  -9.24421194  -0.11540796  -2.03501317
 H  -9.70869792   0.86258819  -2.09000809
 C  -9.39096242  -2.51467537  -2.15180719
 H  -9.97232920  -3.41783316  -2.29780408
 C  -10.00367733  -1.26741124  -2.22447593
 H  -11.06641873  -1.19261577  -2.42502020
 N  -2.69839305  -0.49857783  -3.26118608
 H  -3.12194588   0.02303225  -4.02028101
 C  -1.24590859  -0.56540196  -3.16395785
 H  -0.98598581  -1.62234582  -3.04196469
 C  -0.80060728   0.19109562  -1.90542853
 C  -0.60955944   0.00879879  -4.41477451
 H   0.47783244  -0.05297739  -4.34870315
 H  -0.88401003   1.05792293  -4.53391644
 H  -0.94425547  -0.55589256  -5.28768757
 O  -0.38487065   1.34902621  -1.94126048
 N  -0.91652691  -0.49044680  -0.74583333
 H  -1.38711595  -1.38493419  -0.76527938
 C  -0.78664062   0.18138332   0.53490618
 H  -1.07636464   1.22943441   0.38345473
 C   0.68115781   0.15701837   0.98518751
 C  -1.68238882  -0.45949348   1.59165500
 H  -1.47571187   0.03021459   2.54524990
 H  -1.40302042  -1.50704657   1.72959503
 O   1.04961454  -0.35335119   2.03222020
 C  -3.15876833  -0.36852987   1.24623819
 H  -3.50969380   0.66072554   1.17927257
 H  -3.35725453  -0.85392044   0.29027474
 C  -4.04335266  -1.14285233   2.26277642
 O  -5.21568927  -0.73066685   2.32898543
 O  -3.52389272  -2.11434216   2.83432623
 N   1.55414927   0.71849095   0.10422941
 H   1.19984814   1.28484575  -0.65682680
 C   2.94999065   0.84462709   0.44923171
 H   3.10458066   0.21676237   1.32648445
 C   3.26447971   2.29100743   0.81744331
 C   3.84716252   0.38982449  -0.69852847
 H   4.89979985   0.48460233  -0.41717171
 H   3.66968988   1.01760775  -1.57459080
 H   3.63637331  -0.64748312  -0.96315470
 O   2.76418426   3.24331043   0.25019737
 N   4.19203216   2.44068318   1.81531831
 H   4.78629484   1.64395288   1.96712003
 C   4.86610836   3.72300286   1.93711807
 H   4.08352653   4.48490513   1.91132498
 C   5.79416708   3.93087432   0.73331376
 C   5.64964572   3.81542362   3.23876174
 H   6.40082905   3.02225608   3.23652504
 H   6.19341456   4.76410680   3.25818088
 O   6.33112847   3.00406138   0.14069139
 C   4.80750961   3.71579694   4.51363180
 H   4.24222819   2.78156600   4.48056141
 C   5.72966959   3.67176052   5.72839157
 H   6.32118124   4.58935223   5.78740423
 H   6.41990137   2.82684229   5.67217849
 H   5.15924214   3.57839640   6.65578652
 C   3.82068001   4.87134580   4.63314761
 H   4.35776110   5.82351336   4.68376021
 H   3.22222543   4.77684812   5.54280386
 H   3.13299108   4.91523284   3.78514752
 N   5.97839096   5.23315247   0.39394793
 H   5.58388710   5.95811376   0.96653801
 C   6.87491196   5.60480586  -0.67669127
 H   7.49286235   4.73356493  -0.90008786
 C   7.81060101   6.72148743  -0.26022995
 C   6.14103999   6.01666099  -1.96297487
 H   6.90783451   6.28440511  -2.69424702
 H   5.53880082   6.90632930  -1.78620089
 O   8.90680014   6.89836834  -0.72202076
 C   5.27543528   4.89480453  -2.51902319
 H   4.47571488   4.64626905  -1.82177451
 H   5.88410994   3.99270749  -2.62651884
 C   4.67130508   5.25347808  -3.86091522
 H   4.15865045   4.38982076  -4.30049027
 H   5.46606753   5.55109544  -4.54812358
 N   3.73526333   6.38629214  -3.68595159
 H   3.17144079   6.32565128  -2.84867668
 N   3.41194682   6.62352996  -5.99247795
 H   3.14011158   7.24852401  -6.73447382
 H   4.26008530   6.10370301  -6.14510006
 N   2.06295290   7.78539216  -4.46371400
 H   2.06902732   8.24872076  -3.56515374
 H   1.73364870   8.35738531  -5.22618132
 C   3.08757186   6.93835836  -4.72457392
 O   7.25654843   7.54882966   0.65904600
 H   7.91085381   8.23588105   0.84054250
