21
conf-883
 N  -6.22951066  -2.58228390  -8.07044735
 H  -6.69377011  -2.35558489  -7.19187149
 H  -6.35517154  -1.80565637  -8.72666431
 H  -6.64722359  -3.42108700  -8.46733382
 C  -4.77133890  -2.73908529  -7.87369722
 H  -4.56638033  -3.72816605  -7.44410632
 C  -4.30478081  -1.66545582  -6.89426981
 C  -4.03521423  -2.60409872  -9.20812161
 H  -2.96055277  -2.59757478  -9.00300005
 O  -3.59087429  -0.72366005  -7.21723229
 C  -4.36214125  -3.71306247  -10.17748679
 H  -4.11452355  -4.69190117  -9.75706443
 H  -3.79256734  -3.57409436  -11.09780796
 H  -5.42094497  -3.70378048  -10.43973986
 O  -4.40523552  -1.37466279  -9.83052385
 H  -4.02294344  -0.68163795  -9.28171132
 N  -4.83624465  -1.77306769  -5.64186601
 H  -5.11859169  -2.68650051  -5.31993763
 C  -4.35566037  -0.89022876  -4.58344018
 H  -4.08289608   0.05364614  -5.05191163
 C  -3.14872931  -1.54193281  -3.92171966
 C  -5.45808954  -0.66812992  -3.54246979
 H  -6.31486278  -0.23837283  -4.06015546
 H  -5.75217221  -1.64590133  -3.15918106
 O  -3.26269992  -2.60892574  -3.33027457
 C  -5.02589164   0.22429146  -2.40501768
 C  -4.49988708  -0.33737546  -1.24033305
 H  -4.38536094  -1.41682070  -1.18149606
 C  -5.11751212   1.61401800  -2.49713302
 H  -5.53121047   2.06275669  -3.39367233
 C  -4.10591286   0.47689175  -0.17776740
 H  -3.70977272   0.02809420   0.72199179
 C  -4.70116337   2.42779263  -1.44519381
 H  -4.78421419   3.50494693  -1.54197849
 C  -4.19650684   1.86297294  -0.27885951
 H  -3.87983000   2.48368323   0.54684598
 N  -1.97277223  -0.87788994  -4.06413759
 H  -2.02176635   0.08076496  -4.37520666
 C  -0.85471542  -1.17540804  -3.18529364
 H  -1.03147673  -2.16719926  -2.77408143
 C  -0.85601956  -0.14339550  -2.05991450
 C   0.46566957  -1.12171510  -3.94028112
 H   1.29784646  -1.35890364  -3.27078690
 H   0.62217312  -0.11786390  -4.34073943
 H   0.46196955  -1.83471057  -4.76508825
 O  -1.06861634   1.03690424  -2.27328483
 N  -0.59493293  -0.62710029  -0.81228104
 H  -0.09510651  -1.49863918  -0.75334193
 C  -0.34188979   0.31916081   0.26912966
 H  -1.10358450   1.08966367   0.19673477
 C   1.05265323   0.90390159   0.07771437
 C  -0.45008569  -0.40422392   1.61495909
 H   0.35643980  -1.14091291   1.68883155
 H  -1.40150796  -0.94382880   1.62513673
 O   1.99495249   0.17797254  -0.22587703
 C  -0.41707427   0.56225614   2.79247222
 H  -0.73446270   0.07075180   3.71300112
 H   0.57962666   0.96632049   2.92796083
 C  -1.40500618   1.69781574   2.44818926
 O  -0.91266789   2.79562122   2.14761904
 O  -2.60291397   1.37563315   2.46576090
 N   1.18973151   2.23999804   0.26345623
 H   0.45597257   2.70775138   0.79347194
 C   2.52958313   2.78848000   0.37173379
 H   3.07933233   2.46558834  -0.51205455
 C   3.22765260   2.19093005   1.61820638
 C   2.46937178   4.30183173   0.48175501
 H   3.47363942   4.73014722   0.47565376
 H   1.98894899   4.57156296   1.42348565
 H   1.89975954   4.72097767  -0.34730549
 O   2.62767974   2.11813279   2.71119138
 N   4.50964947   1.78885239   1.40111856
 H   4.98540569   2.13463551   0.58680289
 C   5.33988520   1.23939233   2.44664648
 H   4.72868423   1.22258711   3.34796880
 C   6.54774869   2.15211071   2.66029527
 C   5.82435997  -0.17705576   2.13332765
 H   6.57295088  -0.12894720   1.33782733
 H   6.33500343  -0.56396044   3.02133147
 O   7.07033207   2.76626013   1.74542374
 C   4.72158979  -1.15197826   1.71039042
 H   4.32304856  -0.80546278   0.75600444
 C   5.32156722  -2.53910965   1.49786175
 H   5.74031324  -2.91773663   2.43356794
 H   6.11967457  -2.51200867   0.75229076
 H   4.56140967  -3.24485967   1.15486495
 C   3.57707815  -1.20636552   2.71561883
 H   3.92609707  -1.58366566   3.68112677
 H   2.78951617  -1.87240701   2.34867556
 H   3.12663588  -0.22722168   2.87435999
 N   7.00692483   2.18527478   3.93913450
 H   6.57113526   1.58404067   4.61747390
 C   8.30452032   2.74187583   4.24283022
 H   8.78362721   2.95385897   3.27988175
 C   9.21194303   1.74247303   4.93108214
 C   8.22955163   4.04941951   5.03120638
 H   9.24618678   4.31703844   5.32637479
 H   7.65930809   3.89665190   5.94660221
 O   10.24249909   2.03348093   5.47932247
 C   7.61918700   5.15969564   4.19079354
 H   6.61996873   4.87631992   3.86597463
 H   8.21422479   5.27605049   3.27632918
 C   7.56259432   6.51056724   4.89194144
 H   7.20469265   7.26405777   4.18796748
 H   8.56208260   6.81946437   5.20195957
 N   6.63702639   6.53126216   6.04300506
 H   5.69250417   6.24717864   5.82192959
 N   8.26225226   6.34027700   7.73548941
 H   8.45983601   6.49076483   8.71276834
 H   8.96927333   6.69923066   7.11097983
 N   5.98200983   6.18802149   8.23748752
 H   5.06216578   6.53288981   7.99540293
 H   6.21968398   6.30515217   9.21137594
 C   6.97303326   6.38163779   7.32938511
 O   8.77592596   0.46887099   4.82110925
 H   9.44167225  -0.08414071   5.25196479
