21
conf-129
 N  -8.35440624  -6.21163670  -2.76281081
 H  -8.30631819  -5.99378461  -1.76644039
 H  -9.08123890  -5.63621263  -3.19497421
 H  -8.58450377  -7.19879439  -2.89178384
 C  -7.07233456  -5.92067350  -3.43635163
 H  -6.24434478  -6.35553429  -2.86885308
 C  -6.90441703  -4.41610301  -3.54137330
 C  -7.08108849  -6.55031798  -4.82817054
 H  -7.88901475  -6.07681008  -5.40090757
 O  -7.80522388  -3.71024462  -3.98647975
 C  -5.76470763  -6.41980427  -5.56201792
 H  -5.50612741  -5.37109090  -5.72328745
 H  -5.82815607  -6.91335395  -6.53330633
 H  -4.97244218  -6.89489318  -4.97817173
 O  -7.38758315  -7.93406295  -4.61736371
 H  -7.44090457  -8.36076623  -5.47592597
 N  -5.71408771  -3.91379178  -3.14534677
 H  -5.02246499  -4.50250888  -2.70543883
 C  -5.45088406  -2.48462007  -3.17873698
 H  -5.84076262  -2.09274017  -4.11734651
 C  -3.94528708  -2.30957410  -3.11834530
 C  -6.13600491  -1.75259923  -2.01755447
 H  -7.20427191  -1.96536405  -2.09930632
 H  -5.78060356  -2.17918948  -1.07752208
 O  -3.27960984  -2.85533423  -2.24102045
 C  -5.86872005  -0.26882417  -2.01672978
 C  -5.33646807   0.35018920  -0.88282299
 H  -5.11115429  -0.23988436   0.00068612
 C  -6.14740545   0.51535205  -3.13825768
 H  -6.57546005   0.04613803  -4.01677001
 C  -5.10024025   1.72233271  -0.87443414
 H  -4.67432366   2.17805718   0.01511236
 C  -5.90690878   1.88862618  -3.12879873
 H  -6.13827368   2.47600074  -4.00921437
 C  -5.38696813   2.50053128  -1.99189422
 H  -5.20449848   3.56814995  -1.97794443
 N  -3.39532279  -1.54743486  -4.09415399
 H  -3.99322985  -0.90029521  -4.57797808
 C  -1.97217383  -1.24723078  -4.09784093
 H  -1.44063252  -2.20034826  -4.02588527
 C  -1.63006919  -0.40082961  -2.87535263
 C  -1.62260024  -0.50822037  -5.37832901
 H  -0.55719025  -0.26871885  -5.41225618
 H  -2.18766083   0.42388633  -5.43410585
 H  -1.87003915  -1.12413970  -6.24521676
 O  -2.23463961   0.63816425  -2.62671666
 N  -0.62837933  -0.87858375  -2.10718420
 H  -0.11959704  -1.70660496  -2.36777651
 C  -0.18858877  -0.20377100  -0.91169432
 H  -0.47065486   0.84643803  -1.01618655
 C   1.33290474  -0.36644014  -0.82137391
 C  -0.85594480  -0.76697983   0.34659135
 H  -0.49583575  -0.21980939   1.22019950
 H  -0.55505517  -1.80807569   0.47950374
 O   1.90732374  -1.33921122  -1.28038775
 C  -2.37662239  -0.64861226   0.28038043
 H  -2.66176130   0.35678490  -0.04800385
 H  -2.82596336  -1.34811701  -0.42222959
 C  -3.01663290  -0.85265656   1.67757294
 O  -4.24311953  -1.08274081   1.67289548
 O  -2.28737726  -0.73091703   2.67271795
 N   1.98204241   0.60989192  -0.14936852
 H   1.50926961   1.39435895   0.27125360
 C   3.40509225   0.54218970   0.08966983
 H   3.66040239  -0.47374064   0.40051882
 C   3.68472461   1.53536133   1.22618517
 C   4.20746099   0.87994365  -1.16668315
 H   5.27903844   0.83223077  -0.96167536
 H   3.96120517   1.88476434  -1.51855331
 H   3.95911554   0.16406097  -1.94912797
 O   2.89645909   2.42585771   1.50123706
 N   4.86441519   1.34919291   1.87111901
 H   5.56284787   0.74120066   1.47157851
 C   5.40617644   2.33359586   2.78170492
 H   4.84201321   3.26024451   2.65526522
 C   6.87010070   2.54876554   2.37816809
 C   5.32515950   1.89355798   4.24376247
 H   5.87766355   0.95704233   4.35235207
 H   5.84087315   2.63681021   4.85694995
 O   7.47703841   1.73699207   1.69925562
 C   3.91282220   1.70063712   4.80136531
 H   3.38788907   0.98618105   4.16683789
 C   4.00084827   1.10774570   6.20505709
 H   4.53468960   1.78895493   6.87280296
 H   4.53260607   0.15386767   6.19287644
 H   3.00593453   0.93334655   6.62114994
 C   3.12289582   3.00664117   4.82076567
 H   3.63389080   3.74603967   5.44466947
 H   2.12782318   2.84122878   5.24174466
 H   2.99845389   3.42290807   3.82112858
 N   7.43305445   3.68397166   2.85939410
 H   6.90067715   4.29351091   3.45757464
 C   8.84741648   3.95123653   2.69980297
 H   9.34339903   3.00669584   2.46348114
 C   9.46042374   4.47146686   3.98379466
 C   9.14983891   4.94397001   1.56829947
 H   10.22721000   5.13277778   1.58938905
 H   8.64990720   5.89116507   1.76235856
 O   10.61259006   4.32380519   4.29482733
 C   8.74738817   4.39126163   0.21019156
 H   7.67146759   4.23428939   0.17880824
 H   9.20635458   3.40670118   0.07463893
 C   9.15956317   5.27853407  -0.95788538
 H   8.90254350   4.78014820  -1.89453056
 H   10.24181753   5.41851490  -0.96320843
 N   8.47006987   6.58463886  -0.96660308
 H   7.46151616   6.52233315  -0.94534176
 N   10.25281863   7.86897045  -0.12172346
 H   10.63594341   8.79817808  -0.04172190
 H   10.91474773   7.17529199  -0.43693296
 N   8.11840000   8.79386380  -0.36751333
 H   7.28520457   8.79407245  -0.94132141
 H   8.53561148   9.70577562  -0.25361375
 C   8.96418541   7.74114244  -0.51170825
 O   8.57992482   5.17969848   4.73173992
 H   9.06301745   5.48942119   5.50853041
