80
82
N         -0.01185        5.17524        1.28450
H          0.78088        4.65419        1.65677
H          0.15261        5.25242        0.28201
C         -1.21740        4.39436        1.50420
H         -1.25551        4.13992        2.57087
C         -1.24075        3.07583        0.70882
C         -2.49017        5.24023        1.20531
H         -2.45684        6.08922        1.89545
H         -3.37777        4.64898        1.45734
O         -0.52219        2.90102       -0.28913
C         -2.61603        5.75671       -0.21418
C         -1.84805        6.84814       -0.65469
H         -1.14387        7.30743        0.03258
C         -3.53539        5.18788       -1.10836
H         -4.15342        4.35702       -0.78354
C         -1.99531        7.35399       -1.94758
H         -1.40275        8.20896       -2.26096
C         -3.69502        5.69540       -2.40237
H         -4.43466        5.25460       -3.06521
C         -2.92349        6.78417       -2.82706
H         -3.07521        7.20947       -3.81674
N         -2.10511        2.12236        1.10815
H         -2.54818        2.21732        2.01129
C         -2.21022        0.83184        0.41063
H         -2.79640        0.18496        1.06986
C         -0.80993        0.17944        0.39233
C         -2.92708        0.97335       -0.94141
H         -2.35617        1.67338       -1.56207
H         -2.90970        0.00122       -1.45081
O         -0.19546        0.04425        1.45147
C         -4.38972        1.44683       -0.83763
H         -4.41071        2.32589       -0.17733
C         -4.89930        1.87545       -2.22084
H         -4.88619        1.02987       -2.91967
H         -5.92929        2.24554       -2.16682
H         -4.27316        2.66874       -2.64760
C         -5.30709        0.37587       -0.22957
H         -5.31560       -0.52686       -0.85313
H         -4.99597        0.08117        0.77934
H         -6.33742        0.74062       -0.15788
N         -0.33407       -0.24947       -0.79705
H         -0.69640        0.10923       -1.67537
C          0.94858       -0.93668       -0.91555
H          1.04836       -1.57410       -0.02954
C          2.17788        0.00775       -0.92839
C          0.96319       -1.80583       -2.17781
H          1.87417       -2.40815       -2.18705
H          0.10605       -2.48910       -2.14789
O          3.07358       -0.13625       -1.76215
C          0.85335       -0.96916       -3.45122
N          1.49358       -1.45850       -4.53788
H          1.45529       -0.92402       -5.39515
H          2.19236       -2.18279       -4.46184
O          0.16418        0.05628       -3.50550
N          2.18760        0.96387        0.02801
H          1.46094        0.95215        0.74290
C          3.33397        1.82865        0.24493
H          4.21558        1.22786        0.50661
C          3.02709        2.72511        1.43596
C          3.73544        2.69713       -0.97642
H          4.18809        2.02977       -1.71285
H          4.51886        3.37944       -0.63195
O          1.92894        2.88634        1.93100
C          2.59936        3.50770       -1.62977
H          1.91551        3.90290       -0.86883
H          3.05510        4.37298       -2.12741
C          1.79029        2.72628       -2.68649
H          2.41287        1.98305       -3.18792
H          0.95965        2.17304       -2.24984
N          1.26052        3.60728       -3.74404
H          1.92055        3.89578       -4.45447
N         -0.67977        4.24131       -2.62746
H         -1.58484        4.69620       -2.65475
H         -0.45500        3.74236       -1.75621
N         -0.18345        5.16091       -4.68845
H         -1.03873        5.69655       -4.62353
H          0.16927        4.98459       -5.61809
C          0.12962        4.31860       -3.67093
O          4.13338        3.35584        1.86501
H          3.87941        3.91886        2.62097
