21
conf-126
 N  -1.41881238  -3.98998193   1.41017803
 H  -2.07328472  -4.20423877   0.65620981
 H  -0.48286700  -4.21775841   1.07256856
 H  -1.63132710  -4.56563054   2.22671465
 C  -1.45961412  -2.56030157   1.75752663
 H  -2.49539674  -2.27415083   1.97360548
 C  -0.96532362  -1.73423883   0.56772777
 C  -0.60496540  -2.26023831   2.99626319
 H   0.41429388  -2.60216298   2.79762710
 H  -0.55976909  -1.17633946   3.14069815
 O  -0.31933578  -2.22673942  -0.33840585
 C  -1.13212020  -2.89978527   4.24881026
 C  -2.04516110  -2.36223405   5.11575034
 H  -2.54030021  -1.40449538   5.09613565
 C  -0.79595947  -4.20207596   4.77000389
 C  -1.55689964  -4.39686972   5.93620008
 C   0.07764229  -5.21048378   4.34775783
 H   0.68592266  -5.08607360   3.45704273
 N  -2.31139286  -3.26274978   6.12689474
 H  -2.94756556  -3.11032343   6.88624090
 C  -0.62021999  -6.55751608   6.24513160
 H  -0.53718090  -7.48343814   6.80121169
 C  -1.48811225  -5.57218458   6.68943024
 H  -2.08948541  -5.70137997   7.58229130
 C   0.15845366  -6.37830464   5.08807990
 H   0.82757707  -7.16829508   4.77110569
 N  -1.27769789  -0.41228878   0.62431720
 H  -1.91855132  -0.09424065   1.33267396
 C  -0.88437082   0.52179064  -0.42239038
 H  -1.18296693   1.50157867  -0.03542525
 C   0.65450954   0.50424466  -0.55114716
 C  -1.59011313   0.32992318  -1.78505795
 H  -1.06720403  -0.47200835  -2.31049804
 O   1.23145507   0.32742872  -1.62603492
 C  -1.46522775   1.63473711  -2.58473901
 H  -2.04025106   2.40136512  -2.05569759
 H  -0.41909454   1.96946599  -2.56231629
 C  -3.05880887  -0.05883047  -1.62198855
 H  -3.59807003   0.69134522  -1.03442378
 H  -3.54187774  -0.12526933  -2.59788232
 H  -3.17315350  -1.03119574  -1.14001823
 C  -1.93885358   1.54009532  -4.03063662
 H  -1.71811664   2.46512859  -4.56567611
 H  -3.01469632   1.37039606  -4.09541544
 H  -1.44326068   0.72149477  -4.56110863
 N   1.29906127   0.73677600   0.61296531
 H   0.75461155   0.75729832   1.45467340
 C   2.73793865   0.66515120   0.83052587
 H   3.06350979  -0.38656160   0.84697403
 C   3.04449527   1.17630248   2.22900631
 C   3.59626495   1.36823291  -0.21910329
 H   4.62718517   1.36519387   0.13986173
 H   3.59101224   0.74702969  -1.10975630
 O   4.03001327   1.78600110   2.55359328
 C   3.17705095   2.79391213  -0.55941714
 H   3.56277503   3.48410530   0.19280737
 H   2.09271447   2.89944843  -0.55226195
 C   3.66168046   3.19035776  -1.94958441
 H   3.51468998   4.26233104  -2.10632700
 H   4.73434476   2.98656667  -2.04530070
 N   2.90840430   2.46182935  -2.95475743
 H   2.41743072   1.63482359  -2.63677683
 N   4.02073182   3.49883693  -4.72966104
 H   4.33195873   3.33373749  -5.67521576
 H   4.75415076   3.79977438  -4.11023860
 N   2.78386743   1.59812467  -5.15035742
 H   2.17617456   0.92211954  -4.69303450
 C   3.22665038   2.44649270  -4.29180548
 O   2.08634142   0.82555222   3.11673857
 H   2.37277541   1.16193226   3.97606456
