21
conf-879
 N  -2.50537197  -3.59212832   2.62885029
 H  -3.47800889  -3.31518986   2.50114815
 H  -2.24281082  -4.15319175   1.81195200
 H  -2.41021021  -4.16621306   3.46478360
 C  -1.60878798  -2.42451219   2.64118704
 H  -2.08192722  -1.59230465   3.17545051
 C  -1.39984201  -2.00979383   1.17829018
 C  -0.28935555  -2.76635834   3.34715684
 H   0.39436982  -1.91462984   3.27254097
 H  -0.49393977  -2.92910044   4.40854225
 O  -1.90143021  -2.68918971   0.28976887
 C   0.35388828  -3.98735087   2.76294777
 C   1.11406202  -4.04983234   1.62920857
 H   1.43683250  -3.27448191   0.97350170
 C   0.22795945  -5.34666829   3.23503166
 C   0.91688023  -6.17077262   2.32809271
 C  -0.40763263  -5.92067515   4.33911326
 H  -0.93742690  -5.30789627   5.05908354
 N   1.44860398  -5.35076079   1.35381452
 H   2.01041761  -5.63549089   0.57555486
 C   0.32915037  -8.10420738   3.57158829
 H   0.35137625  -9.17672990   3.72210990
 C   0.97547595  -7.55770895   2.47346901
 H   1.50485536  -8.17611348   1.75750818
 C  -0.35064292  -7.29403399   4.49925060
 H  -0.84053028  -7.75606288   5.34717515
 N  -0.69448684  -0.85916433   1.00556021
 H  -0.20101501  -0.53267847   1.81938408
 C  -0.20626784  -0.21972355  -0.22308671
 H  -0.39810713   0.85154754  -0.14215551
 C   1.33946455  -0.36859681  -0.20759251
 C  -0.82131563  -0.73696604  -1.51888338
 H  -0.76234494  -1.82301291  -1.48204420
 O   1.88718300  -1.46987372  -0.38656578
 C  -0.01022711  -0.30265595  -2.74935492
 H   0.98896755  -0.74436688  -2.65782407
 H  -0.47580151  -0.76071649  -3.62760016
 C  -2.28421197  -0.29058137  -1.63324954
 H  -2.35186703   0.79832477  -1.68754984
 H  -2.73494794  -0.70559844  -2.53985046
 H  -2.87515213  -0.62392520  -0.78143312
 C   0.10768571   1.19985041  -2.97008281
 H   0.66095975   1.41648748  -3.89006411
 H   0.62688099   1.69606801  -2.14916906
 H  -0.87398024   1.66789028  -3.07483994
 N   2.00885802   0.80351245   0.03034409
 H   1.47979788   1.54437170   0.45231327
 C   3.42856882   0.82108256   0.30816565
 H   3.79694996  -0.20311237   0.25695556
 C   3.65027564   1.31903164   1.71534628
 C   4.21462652   1.69348835  -0.68023559
 H   4.00153828   2.74947468  -0.48950069
 H   5.27723916   1.55334114  -0.47158691
 O   2.86057845   1.95586622   2.36395052
 C   3.91573180   1.37172738  -2.14065127
 H   4.47703930   2.04765218  -2.79267600
 H   2.86105895   1.56702951  -2.34619550
 C   4.22170944  -0.06611099  -2.50947486
 H   5.29971532  -0.25949767  -2.44297020
 H   3.74112741  -0.74006391  -1.81104686
 N   3.71752627  -0.38685712  -3.84113434
 H   3.41928709  -1.34262908  -3.93155387
 N   3.90418371  -0.52870978  -6.13312639
 H   4.31337260  -0.09113047  -6.94721941
 H   2.89672892  -0.50688202  -6.15386373
 N   5.52726053   0.69769814  -5.01277127
 H   5.82550352   0.94111087  -4.07472091
 C   4.45814271  -0.00402681  -4.96858359
 O   4.87654069   0.98768160   2.16460504
 H   4.94428546   1.36346515   3.05202217
