21
conf-404
 N  -2.19003899  -3.08240967   2.32105758
 H  -2.87287073  -2.39654844   1.99530356
 H  -2.12560714  -3.83648839   1.63134561
 H  -2.51756453  -3.47774976   3.20594940
 C  -0.84775937  -2.49392629   2.53343210
 H  -0.93897468  -1.69823182   3.28335661
 C  -0.31122979  -1.88963158   1.23727061
 C   0.10775042  -3.55535015   3.07158562
 H   0.13683161  -4.37598778   2.35606640
 H   1.11194588  -3.14067352   3.13494708
 O   0.55407461  -2.42925967   0.56174635
 C  -0.36502766  -4.03183096   4.40375931
 C  -1.20245429  -5.08878182   4.62788407
 H  -1.60844850  -5.80361188   3.93082116
 C  -0.13925289  -3.40856549   5.68300754
 C  -0.86715613  -4.13818791   6.63611034
 C   0.60786981  -2.29461590   6.09658031
 H   1.17932287  -1.70335549   5.39476691
 N  -1.50041851  -5.16387540   5.97112038
 H  -2.11114360  -5.83665519   6.39295479
 C  -0.13681570  -2.69694237   8.37485218
 H  -0.12212352  -2.40245493   9.41749581
 C  -0.88274118  -3.80113986   7.99146417
 H  -1.45401178  -4.38137992   8.70756309
 C   0.60102953  -1.95214715   7.43966547
 H   1.17329909  -1.09571274   7.77519179
 N  -0.90614882  -0.73170294   0.85063813
 H  -1.66904883  -0.35167629   1.38428996
 C  -0.36896088   0.05953133  -0.25136644
 H  -0.88070968   1.02149924  -0.16304540
 C   1.14688448   0.29635126  -0.02119684
 C  -0.66591342  -0.49941442  -1.66675988
 H   0.23183445  -1.02739046  -2.00262480
 O   2.00470854   0.09686166  -0.86784752
 C  -0.97745866   0.64882536  -2.63825895
 H  -1.19453821   0.20233265  -3.61491374
 H  -1.90638635   1.12084438  -2.30504823
 C  -1.83802171  -1.47999687  -1.70240231
 H  -2.75310661  -1.01239322  -1.33308743
 H  -2.01532292  -1.80204642  -2.73005295
 H  -1.63428472  -2.37373212  -1.11365357
 C   0.10122131   1.70652960  -2.81047860
 H  -0.20909192   2.44778985  -3.54783884
 H   1.04301466   1.26795531  -3.14817784
 H   0.29499637   2.23698749  -1.87607225
 N   1.44745628   0.78080700   1.21569895
 H   0.76283183   0.72176488   1.94861164
 C   2.81411831   0.82356714   1.67786751
 H   3.43551109   0.26456196   0.97180055
 C   2.88567595   0.13510360   3.02198454
 C   3.36093931   2.25091816   1.79969820
 H   2.74861445   2.81823737   2.50149094
 H   4.36378603   2.19255457   2.22572950
 O   1.91998861  -0.16689749   3.68186028
 C   3.42999041   2.96835415   0.45951340
 H   2.43146112   3.07811746   0.03094755
 H   4.01411537   2.36471187  -0.24298309
 C   4.05750473   4.34591853   0.57864235
 H   5.02278808   4.26607759   1.08016443
 H   4.23220691   4.76585599  -0.41937178
 N   3.19615557   5.21555202   1.36311966
 H   2.21695902   5.14684189   1.14208001
 N   4.94613060   6.72120043   1.77223535
 H   5.12910884   7.69242216   1.97544029
 H   5.45403912   6.37969962   0.97257122
 N   2.78553945   7.38321662   2.23427319
 H   1.82758598   7.04478572   2.24520899
 C   3.57514144   6.48441498   1.77429738
 O   4.14551857  -0.09255707   3.42590380
 H   4.08025421  -0.51155748   4.29302526
