21
conf-727
 N  -0.09366312  -0.26954300   4.16534076
 H   0.89331573  -0.29216481   3.88872682
 H  -0.36522824   0.71525962   4.22451369
 H  -0.23523585  -0.72251298   5.06800280
 C  -0.93354769  -0.90831627   3.13676932
 H  -0.63022252  -1.95257047   3.01010867
 C  -0.71394693  -0.14708666   1.83800550
 C  -2.40270705  -0.85566244   3.54205660
 H  -2.68921129   0.19190700   3.65064657
 H  -3.02416009  -1.25637458   2.73591450
 O  -0.77166015   1.08588561   1.81145382
 C  -2.65782725  -1.58456862   4.82966477
 C  -1.91821029  -2.58743496   5.40637627
 H  -1.02092927  -3.07523129   5.06639729
 C  -3.75990189  -1.33216402   5.72270599
 C  -3.62441470  -2.19969669   6.81753555
 C  -4.83204476  -0.43192592   5.68185751
 H  -4.96467818   0.25053927   4.84916449
 N  -2.49764406  -2.95614425   6.60058312
 H  -2.14480971  -3.65746954   7.22400947
 C  -5.58442694  -1.31524894   7.82040538
 H  -6.30901625  -1.29038542   8.62527818
 C  -4.52888484  -2.21130561   7.88224951
 H  -4.40561594  -2.89211100   8.71738558
 C  -5.73432616  -0.43522265   6.73135754
 H  -6.57190813   0.25218137   6.71936477
 N  -0.50434002  -0.89666594   0.73481205
 H  -0.30876123  -1.87668214   0.83547541
 C  -0.24544847  -0.28552906  -0.56736662
 H  -0.80997784   0.64644991  -0.57227914
 C   1.25372096  -0.00162781  -0.63706310
 C  -0.70913829  -1.16204480  -1.74306397
 H   0.07701901  -1.90099410  -1.92935651
 O   2.06062653  -0.78918887  -1.11623056
 C  -0.91010599  -0.31388366  -3.00820611
 H  -1.26565289  -0.98664482  -3.79566164
 H  -1.72910490   0.38233303  -2.80592598
 C  -2.01939301  -1.89176885  -1.45686858
 H  -2.81175731  -1.17554728  -1.22385076
 H  -2.32483960  -2.46287887  -2.33542910
 H  -1.92663220  -2.59113232  -0.62568899
 C   0.29751043   0.45373768  -3.52247437
 H   0.08073420   0.89090606  -4.49847329
 H   1.17010557  -0.19354516  -3.62745741
 H   0.56754962   1.27833884  -2.85694393
 N   1.62915672   1.19246778  -0.10481877
 H   0.98820894   1.61732795   0.55710112
 C   3.02227097   1.39621003   0.22468659
 H   3.62335919   0.82282026  -0.48574467
 C   3.27254709   0.80663625   1.61644196
 C   3.40674034   2.87068841   0.17022659
 H   2.76489533   3.42144602   0.86160846
 H   4.43230835   2.98500099   0.52389644
 O   2.41103968   0.37180788   2.34081196
 C   3.28539409   3.42950611  -1.23949588
 H   2.26908363   3.29517747  -1.61124620
 H   3.94116712   2.86468751  -1.90600012
 C   3.63252385   4.91136477  -1.31356607
 H   2.99882226   5.47611229  -0.62790039
 H   4.66815317   5.06625422  -1.00053326
 N   3.50302390   5.48066224  -2.65185431
 H   4.23145467   5.15528921  -3.26892629
 N   1.18254796   5.72527673  -2.46596040
 H   0.34914115   5.88831032  -3.01119536
 H   1.33788017   6.42453545  -1.75585787
 N   2.06967035   5.25154895  -4.54323285
 H   2.94874925   5.04977612  -5.01226870
 C   2.26630952   5.47872771  -3.29798317
 O   4.57126652   0.82980021   1.92159686
 H   4.64398831   0.44021561   2.80031906
