21
conf-920
 N  -1.20717831  -3.26649141   2.85039619
 H  -1.38094182  -4.01437123   2.17756067
 H  -0.22852655  -3.33168304   3.13883684
 H  -1.80902869  -3.38485236   3.66676771
 C  -1.44559661  -1.94202899   2.25205939
 H  -2.45968407  -1.91145369   1.84023224
 C  -0.44348553  -1.69551473   1.12419363
 C  -1.33049906  -0.85952424   3.32280065
 H  -0.32153131  -0.89549161   3.74566011
 H  -1.43630577   0.12805152   2.86210068
 O   0.61334719  -2.29453184   1.05635946
 C  -2.34200225  -1.03035649   4.42281073
 C  -3.56496925  -1.64934873   4.36272405
 H  -4.06055958  -2.13648492   3.54119785
 C  -2.19584640  -0.55541293   5.77508965
 C  -3.35374854  -0.92172643   6.47855688
 C  -1.17165320   0.12891332   6.44130476
 H  -0.26126318   0.41985314   5.92931330
 N  -4.17378714  -1.58371014   5.59676548
 H  -5.06708790  -1.97774480   5.82426727
 C  -2.51760438   0.06675814   8.46693997
 H  -2.62078430   0.32252408   9.51451455
 C  -3.54011341  -0.61777760   7.82940149
 H  -4.44591976  -0.90740233   8.35072584
 C  -1.34533148   0.43546811   7.77968755
 H  -0.56539410   0.96698803   8.31194828
 N  -0.81727266  -0.75301747   0.21879370
 H  -1.75718378  -0.39723949   0.24102878
 C   0.01652698  -0.40227615  -0.92426174
 H  -0.49940134   0.45365226  -1.36661688
 C   1.38692798   0.07910161  -0.40580259
 C   0.15264644  -1.48550973  -2.02405958
 H   1.07113225  -2.04154612  -1.81652328
 O   2.46113090  -0.38826429  -0.75165617
 C   0.24997711  -0.82947773  -3.40994308
 H   0.32783540  -1.63461176  -4.14883078
 H  -0.70270452  -0.32769091  -3.60303153
 C  -1.01389956  -2.47215515  -2.05866666
 H  -1.96195521  -1.95917757  -2.24146174
 H  -0.85921858  -3.18709047  -2.86949380
 H  -1.09341099  -3.04387715  -1.13544771
 C   1.39311395   0.14887950  -3.62556108
 H   1.38651960   0.52012291  -4.65113199
 H   2.36206433  -0.32090057  -3.44189988
 H   1.31125116   1.01480105  -2.96418914
 N   1.31586017   1.09340780   0.48987833
 H   0.43512073   1.43914378   0.82314081
 C   2.52950678   1.69703262   1.00352255
 H   3.26744929   0.90699681   1.16953292
 C   2.26365919   2.37383795   2.32862936
 C   3.13211474   2.70997068   0.01337106
 H   3.19650947   2.21276948  -0.95574976
 H   2.44963618   3.55364744  -0.10349845
 O   3.04369936   2.45017644   3.24418206
 C   4.51547036   3.18751777   0.43381502
 H   5.17275237   2.32226884   0.54725312
 H   4.47505470   3.67257778   1.40772760
 C   5.12155471   4.14411281  -0.58507909
 H   5.22605901   3.63139064  -1.54521824
 H   4.46268436   4.99921815  -0.75669575
 N   6.44204120   4.63282890  -0.22601750
 H   7.17039648   3.94781949  -0.34864878
 N   5.59161484   6.25051525   1.24022830
 H   5.75397378   6.69315059   2.13089102
 H   4.66699346   5.87281617   1.13495030
 N   7.76114578   5.54210213   1.52825563
 H   8.46729199   4.93478081   1.12198882
 C   6.65618926   5.43763640   0.88778795
 O   1.04355474   2.95765964   2.36416626
 H   0.97160265   3.39447336   3.22200331
