21
conf-746
 N  -1.24681121  -4.07752890   2.54453055
 H  -2.25753119  -4.10691427   2.39759518
 H  -0.80045282  -4.56302557   1.76040928
 H  -0.99990459  -4.53124409   3.42657630
 C  -0.73619853  -2.69875277   2.53444115
 H  -1.41839002  -2.04704680   3.08898888
 C  -0.61716987  -2.22512671   1.08869874
 C   0.63894747  -2.63769817   3.21164541
 H   1.30761546  -3.32716767   2.68994133
 H   1.05170848  -1.63177064   3.11055050
 O  -0.46731552  -3.01840777   0.17325526
 C   0.54620623  -3.01855288   4.65856457
 C   0.79511080  -4.25268473   5.18720324
 H   1.17192962  -5.14057932   4.70382461
 C   0.05577901  -2.19985174   5.73733500
 C   0.02058850  -3.00397880   6.88668853
 C  -0.36280092  -0.86530618   5.81717578
 H  -0.34044161  -0.21309227   4.94764988
 N   0.48520991  -4.25020796   6.52934555
 H   0.55120989  -5.04115504   7.13995012
 C  -0.83647439  -1.20619610   8.17695599
 H  -1.18898806  -0.79796042   9.11660135
 C  -0.42574184  -2.52907272   8.12216962
 H  -0.44688133  -3.17043256   8.99627301
 C  -0.80213164  -0.38194306   7.03767335
 H  -1.12799642   0.64804349   7.11933520
 N  -0.66566187  -0.87464968   0.93194380
 H  -0.80389961  -0.32080412   1.75860614
 C  -0.38708598  -0.15166493  -0.31381038
 H  -0.65309462   0.88327484  -0.08591473
 C   1.12283198  -0.20254617  -0.59097285
 C  -1.22929416  -0.59231640  -1.52355243
 H  -0.78149613  -1.50245346  -1.92740553
 O   1.66368379  -1.07478379  -1.26078784
 C  -1.24625274   0.48713281  -2.61665528
 H  -1.94816502   0.14662337  -3.38636663
 H  -1.68200505   1.39335560  -2.18636645
 C  -2.67973206  -0.87654764  -1.13093575
 H  -3.13405315   0.00436688  -0.66774753
 H  -3.25897772  -1.13160950  -2.02058584
 H  -2.75522658  -1.71374682  -0.44098261
 C   0.07925796   0.81258509  -3.28860863
 H  -0.08924915   1.42043840  -4.17936298
 H   0.60442085  -0.09463698  -3.59379471
 H   0.74394314   1.38351936  -2.63591264
 N   1.83093305   0.80607328  -0.02040347
 H   1.37685088   1.49298848   0.55426165
 C   3.28042223   0.85013293  -0.10415452
 H   3.56246616   0.07761445  -0.81741925
 C   3.85355824   0.47670155   1.24567919
 C   3.76848565   2.21521932  -0.56567133
 H   3.19225051   2.48350020  -1.45512592
 H   3.54412569   2.95362936   0.20700208
 O   4.33420952   1.24475126   2.04269720
 C   5.25078480   2.24436879  -0.90567169
 H   5.46749942   1.49326191  -1.66852753
 H   5.84221443   1.99394216  -0.02439320
 C   5.68314439   3.60814657  -1.41964476
 H   5.07713262   3.88318473  -2.29249921
 H   5.50791372   4.35835295  -0.64450702
 N   7.09399806   3.58256177  -1.75197599
 H   7.41672782   2.72934310  -2.17403332
 N   7.18165512   5.91894915  -1.85993198
 H   7.69845216   6.68056602  -2.27218127
 H   6.19051564   5.96816282  -2.02728459
 N   8.97927770   4.70714055  -2.64482223
 H   9.33049066   3.75750448  -2.72730860
 C   7.79924415   4.70692570  -2.14476930
 O   3.72942452  -0.84540073   1.48663644
 H   4.12138823  -0.98781475   2.35774352
