21
conf-448
 N  -1.51552472  -3.85198664   2.59782659
 H  -2.51272486  -3.97114178   2.42387154
 H  -1.01655249  -4.32723455   1.83979526
 H  -1.26118518  -4.29229877   3.48192505
 C  -1.11997250  -2.43562258   2.54572508
 H  -1.87682347  -1.81763756   3.04302695
 C  -1.06167131  -2.02256169   1.07061959
 C   0.22968735  -2.20736431   3.24911000
 H   0.57993373  -1.20201945   3.01714272
 H   0.07435548  -2.26191971   4.33032062
 O  -1.11288415  -2.86092077   0.18126024
 C   1.27149933  -3.20998369   2.85206438
 C   2.05891638  -3.18844462   1.73159870
 H   2.09161947  -2.46423804   0.94384160
 C   1.60297856  -4.42894922   3.55041375
 C   2.57495320  -5.09870596   2.78780808
 C   1.15280014  -4.99909259   4.74402163
 H   0.40874240  -4.50044682   5.35525294
 N   2.83252817  -4.32077394   1.67817342
 H   3.49340396  -4.52615949   0.95403810
 C   2.63654376  -6.88135640   4.35245531
 H   3.02230986  -7.83762112   4.68434031
 C   3.10421532  -6.33271613   3.16813899
 H   3.84859373  -6.83621142   2.56167760
 C   1.67375271  -6.21925111   5.13626039
 H   1.33403550  -6.67679939   6.05699205
 N  -0.98609686  -0.68126354   0.84846686
 H  -0.81788801  -0.10511113   1.65298174
 C  -0.64329161  -0.06160134  -0.44178409
 H  -0.96419404   0.98157223  -0.35457926
 C   0.87443921  -0.06433391  -0.56037058
 C  -1.35495132  -0.65051879  -1.66208264
 H  -0.98176737  -1.65801051  -1.83407646
 O   1.52533900  -1.07777505  -0.80152772
 C  -1.11379683   0.17193836  -2.93673318
 H  -1.80983854  -0.21695459  -3.68915603
 H  -1.41862365   1.20539989  -2.74679240
 C  -2.86593630  -0.68756024  -1.41741489
 H  -3.25021083   0.32698871  -1.27893741
 H  -3.36845425  -1.12921417  -2.28068393
 H  -3.12635560  -1.27800706  -0.54294189
 C   0.29244930   0.12473965  -3.52169352
 H   0.28005586   0.45134789  -4.56330598
 H   0.69767244  -0.88847735  -3.48920954
 H   0.98290877   0.77974126  -2.99227448
 N   1.47163053   1.14157781  -0.39142842
 H   0.92258949   1.87159166   0.02811898
 C   2.89382400   1.18280184  -0.09987150
 H   3.38821648   0.47731791  -0.77473837
 C   3.13234237   0.68245832   1.31384543
 C   3.45544895   2.58628879  -0.30174830
 H   2.90195573   3.28219880   0.33065612
 H   4.48741043   2.60255676   0.03979110
 O   2.25902019   0.38303630   2.08823637
 C   3.38659776   3.02373831  -1.75580549
 H   2.34959405   3.01192446  -2.10319159
 H   3.93387400   2.31128412  -2.38035619
 C   3.94837869   4.41423014  -1.96901951
 H   3.74884563   4.76044278  -2.99160868
 H   3.45316842   5.11351208  -1.29091508
 N   5.37641520   4.44509676  -1.68249061
 H   5.90264456   3.73847980  -2.17156842
 N   7.42435612   5.49505148  -1.58891700
 H   7.88022457   6.37978131  -1.41504405
 H   7.70725390   4.78193853  -0.93446497
 N   5.54392267   6.84156963  -1.79000091
 H   4.53966269   6.79040781  -1.91940813
 C   6.04564484   5.66948221  -1.68603766
 O   4.44079186   0.61213062   1.61047641
 H   4.49750804   0.30162906   2.52295463
