21
conf-497
 N  -1.95990790  -3.63865798   2.06173643
 H  -2.80819081  -3.87732803   1.54623751
 H  -1.18734062  -4.14471581   1.62647708
 H  -2.05032468  -3.93270229   3.03526460
 C  -1.67714088  -2.19743530   1.98254125
 H  -2.57115166  -1.63710899   2.27702941
 C  -1.31998272  -1.83157321   0.54082188
 C  -0.53134526  -1.80535501   2.92230847
 H   0.36030453  -2.36767247   2.63194378
 H  -0.30138976  -0.74576381   2.77639712
 O  -0.96924350  -2.67038856  -0.26763061
 C  -0.84780333  -2.04353179   4.37168782
 C  -1.46942673  -1.17266004   5.22596441
 H  -1.82771858  -0.16967773   5.05614020
 C  -0.57957564  -3.23753535   5.13489168
 C  -1.07955665  -3.02865729   6.43195874
 C   0.03487617  -4.45616846   4.82692493
 H   0.43254707  -4.64374197   3.83403965
 N  -1.61971475  -1.76406062   6.46328926
 H  -2.04614652  -1.33517931   7.26253212
 C  -0.38627462  -5.19969115   7.10068786
 H  -0.30123976  -5.97843518   7.84890593
 C  -0.99668975  -4.00024435   7.43317748
 H  -1.39371812  -3.81764762   8.42539003
 C   0.12765781  -5.42606081   5.81157536
 H   0.59820959  -6.37487820   5.58674977
 N  -1.39768163  -0.50612504   0.25126092
 H  -1.79130193   0.11875431   0.93599056
 C  -1.09640825   0.01765159  -1.07502077
 H  -1.17173082   1.10428501  -0.96028024
 C   0.36009100  -0.33674418  -1.43879383
 C  -2.07448720  -0.40596954  -2.19782999
 H  -1.77735485  -1.40781019  -2.51659882
 O   0.68655014  -0.90523485  -2.47370107
 C  -1.92015354   0.57266858  -3.37189557
 H  -2.40175296   1.51201191  -3.08461912
 H  -0.85762881   0.80528238  -3.50862244
 C  -3.52506815  -0.43418856  -1.72188419
 H  -3.81220691   0.53641906  -1.30567750
 H  -4.19559480  -0.64282622  -2.55708640
 H  -3.69608811  -1.20411166  -0.96795420
 C  -2.49539708   0.05640382  -4.68431340
 H  -2.37011207   0.79337178  -5.47907821
 H  -3.55909635  -0.17217829  -4.60511321
 H  -1.98437235  -0.86015703  -4.99433107
 N   1.27247078   0.06443595  -0.51633680
 H   0.97821458   0.29636429   0.41660200
 C   2.67934925  -0.22585657  -0.66682084
 H   2.79289990  -1.07111867  -1.35432170
 C   3.22124943  -0.62060279   0.68793458
 C   3.48700029   0.96065461  -1.21365769
 H   3.37429456   1.81660497  -0.54754292
 H   4.54168412   0.68124215  -1.20154792
 O   2.63766258  -0.46783137   1.73439092
 C   3.09013932   1.34141102  -2.63208320
 H   2.05238368   1.67395046  -2.66921016
 H   3.16363899   0.46065565  -3.27699871
 C   3.97524378   2.44065595  -3.18792101
 H   5.02411754   2.14665869  -3.09764379
 H   3.77373560   2.59816475  -4.25475028
 N   3.78835318   3.67252025  -2.44101293
 H   2.82704589   3.91205312  -2.27301880
 N   4.24850756   5.89519513  -1.95889590
 H   4.75268562   6.70707260  -2.28157359
 H   3.26175474   6.05987386  -1.85357481
 N   5.69175815   4.77823521  -3.37623797
 H   5.84512665   3.87589263  -3.81072021
 C   4.62080534   4.76247603  -2.67366349
 O   4.45337901  -1.15294615   0.60899590
 H   4.71902791  -1.34790856   1.51637903
