21
conf-669
 N  -1.90216467  -4.06706503   2.40829863
 H  -2.90279614  -4.04844428   2.20106122
 H  -1.44214183  -4.64079926   1.69477395
 H  -1.73859640  -4.46391119   3.33544654
 C  -1.30169190  -2.72521253   2.32724019
 H  -1.96595534  -1.99361577   2.79818932
 C  -1.09623343  -2.37044278   0.85847723
 C   0.03575490  -2.70493602   3.06970559
 H   0.68145272  -3.46321299   2.62045464
 H   0.50472212  -1.73855741   2.93531764
 O  -0.89162028  -3.23989664   0.02476103
 C  -0.15714688  -2.99275078   4.52790346
 C  -0.04273105  -4.20995850   5.13673359
 H   0.27737654  -5.15364735   4.72421937
 C  -0.62261335  -2.07272960   5.53385930
 C  -0.78069412  -2.80059066   6.72300436
 C  -0.92301270  -0.70365005   5.51771461
 H  -0.79896409  -0.10776787   4.61590373
 N  -0.40980446  -4.10047057   6.46019337
 H  -0.44599430  -4.85672623   7.11586608
 C  -1.53370292  -0.86218162   7.86610044
 H  -1.89156457  -0.37005207   8.76256215
 C  -1.23909172  -2.21624727   7.90591824
 H  -1.35636112  -2.79990205   8.81223999
 C  -1.37435883  -0.11342559   6.68631098
 H  -1.61090047   0.94394044   6.69445721
 N  -1.14877398  -1.03996970   0.58338668
 H  -1.27319078  -0.41764906   1.36046181
 C  -0.84451699  -0.41715144  -0.71224579
 H  -1.23170970   0.60138377  -0.62003231
 C   0.67377335  -0.32906425  -0.83947815
 C  -1.52678097  -1.05828154  -1.92958508
 H  -1.02020768  -1.99871885  -2.14890318
 O   1.38189143  -1.22879745  -1.26570384
 C  -1.45024413  -0.15390085  -3.17061694
 H  -2.07554939  -0.62456311  -3.93791596
 H  -1.93093079   0.79796047  -2.92710153
 C  -3.00680183  -1.32264522  -1.64867405
 H  -3.52231144  -0.38799971  -1.41034730
 H  -3.47782951  -1.75799012  -2.53221571
 H  -3.14722876  -2.01722354  -0.82467469
 C  -0.06881622   0.08888941  -3.76145664
 H  -0.15610992   0.49983783  -4.76890827
 H   0.50641984  -0.83691794  -3.82136306
 H   0.50853990   0.80626099  -3.17392511
 N   1.21384178   0.84764751  -0.41130329
 H   0.63175076   1.45630734   0.13670268
 C   2.62221142   0.85940157  -0.06417432
 H   3.14716388   0.27045746  -0.82037259
 C   2.82294557   0.12036182   1.26334301
 C   3.16710905   2.28294663  -0.02794972
 H   2.56903823   2.86313154   0.67708177
 H   4.18694734   2.26579559   0.35748025
 O   1.94583727  -0.40436623   1.90846012
 C   3.15382663   2.93386683  -1.40097901
 H   2.14618581   2.92677041  -1.81693442
 H   3.78289824   2.35476084  -2.08072948
 C   3.66056519   4.36488087  -1.37113228
 H   3.04685871   4.96947246  -0.68931772
 H   4.68373453   4.38645707  -0.98666501
 N   3.66236487   4.92798679  -2.71263229
 H   2.81730495   4.74296844  -3.22753649
 N   3.88082058   6.65755605  -4.21592753
 H   4.36680631   7.52383271  -4.39957029
 H   4.06437174   5.95617411  -4.91654070
 N   4.64990349   7.01973719  -2.05562075
 H   4.69063837   6.57749906  -1.14339919
 C   4.11172377   6.23428412  -2.91013089
 O   4.10854854   0.11786754   1.61923451
 H   4.14957955  -0.36961653   2.44907058
