21
conf-549
 N  -10.62782428   0.92120770  -6.38349425
 H  -10.95705660   0.79022644  -7.34066732
 H  -11.16275075   1.65556218  -5.92702670
 H  -10.75981104   0.03112809  -5.89242936
 C  -9.17487367   1.18041755  -6.33474627
 H  -8.87010845   1.76488135  -7.20586177
 C  -8.47280054  -0.17246714  -6.35975467
 C  -8.78351619   1.91819265  -5.05420568
 H  -7.69792462   2.01403202  -4.98743720
 H  -9.12135851   1.34658443  -4.18409160
 H  -9.23687451   2.91082514  -5.01509306
 O  -9.03940483  -1.18172873  -5.97724598
 N  -7.17342455  -0.16429465  -6.79654868
 H  -6.73805321   0.74517243  -6.84007864
 C  -6.27519988  -1.19805074  -6.29325416
 H  -6.88790892  -2.06969300  -6.07007589
 C  -5.62160982  -0.67350327  -5.00259520
 C  -5.22959963  -1.58875576  -7.33577528
 H  -4.51769231  -0.77864491  -7.51412741
 H  -5.75141382  -1.77159823  -8.27732348
 O  -5.47045060   0.52223913  -4.78750005
 C  -4.49750940  -2.87154980  -6.97055086
 N  -3.29869950  -3.05762017  -7.57978408
 H  -2.83952789  -3.93484564  -7.41150375
 H  -2.96734317  -2.42831435  -8.28626965
 O  -4.96567508  -3.69070572  -6.19409335
 N  -5.22601176  -1.63750212  -4.14453213
 H  -5.29099015  -2.60880292  -4.43336991
 C  -4.39352655  -1.32983128  -3.00159853
 H  -3.88684560  -0.38271313  -3.18078384
 C  -3.37411011  -2.45984052  -2.86656327
 C  -5.21447380  -1.20373767  -1.71699925
 H  -5.69177911  -2.16303961  -1.51279797
 H  -4.53888204  -0.98353358  -0.88978581
 O  -3.70676930  -3.63051061  -3.00955795
 C  -6.27472712  -0.10601235  -1.81002763
 H  -6.90627272  -0.11759496  -0.91893695
 H  -6.93722545  -0.26697327  -2.66473873
 C  -5.69275953   1.27384839  -1.90881034
 O  -4.54760633   1.58260354  -1.67347304
 O  -6.63016033   2.18757754  -2.24947272
 N  -2.10951823  -2.07201266  -2.57065030
 H  -1.93064220  -1.13543449  -2.24105241
 C  -1.06345903  -3.01940120  -2.24548617
 H  -1.52458161  -3.98229800  -2.02175126
 C  -0.35911653  -2.48217922  -1.00709141
 C  -0.06252377  -3.20136186  -3.38787772
 H   0.73967151  -3.85900032  -3.04451692
 H   0.39428860  -2.23173344  -3.60597376
 O  -0.39095688  -1.28968074  -0.71405482
 C  -0.65354914  -3.76568962  -4.68208964
 H  -1.49902634  -3.13336092  -4.96490446
 C   0.38180554  -3.69480444  -5.80034313
 H   1.26168906  -4.29159638  -5.54655497
 H   0.70324842  -2.66597290  -5.97403220
 H  -0.03361066  -4.08150656  -6.73523672
 C  -1.15602993  -5.19706284  -4.51123719
 H  -0.33002055  -5.85960889  -4.23807144
 H  -1.93100825  -5.26913129  -3.74779601
 H  -1.57979607  -5.55460926  -5.45437016
 N   0.32768153  -3.39114759  -0.28400259
 H   0.47320095  -4.30508507  -0.67464956
 C   1.15721947  -2.99770066   0.85082261
 H   0.64597695  -2.14336190   1.29264059
 C   2.52756005  -2.54835444   0.32998573
 C   1.25496209  -4.13015864   1.86040720
 H   0.24581107  -4.51463254   2.02356918
 H   1.84915646  -4.93563251   1.42143071
 O   3.56030504  -3.17722641   0.52747421
 C   1.84807487  -3.74510685   3.22067999
 H   2.82425929  -3.28556530   3.03975161
 C   0.96302687  -2.75204429   3.96604574
 H  -0.00785509  -3.20504689   4.18835100
 H   0.78770245  -1.84182310   3.38912754
 H   1.42401374  -2.46382119   4.91389631
 C   2.06147635  -5.00508843   4.05700996
 H   1.10985444  -5.51369828   4.23097329
 H   2.73433428  -5.70214155   3.55371667
 H   2.49631983  -4.76190949   5.02915634
 N   2.49765633  -1.42548362  -0.43251913
 H   1.63321479  -0.90781795  -0.50362675
 C   3.73840016  -0.82273879  -0.87249869
 H   4.44376743  -1.64728647  -0.96237255
 C   4.25058413   0.12840922   0.19706784
 C   3.59888054  -0.16278699  -2.25814485
 H   3.23777165  -0.97640720  -2.90193385
 O   3.59496082   1.08668370   0.58850166
 C   4.93925658   0.32213558  -2.80999588
 H   4.74038883   0.83452784  -3.75515499
 H   5.33255709   1.08274475  -2.12770277
 C   2.58757209   0.97812581  -2.31479380
 H   2.99807971   1.86135801  -1.82338143
 H   1.64525390   0.72528862  -1.82373533
 H   2.37740000   1.23732421  -3.35330341
 C   5.97110727  -0.77162933  -3.04316392
 H   6.86500780  -0.35827247  -3.51366354
 H   5.57976758  -1.55373939  -3.69993405
 H   6.28794695  -1.24433231  -2.10571168
 N   5.47762932  -0.14819065   0.69922795
 H   6.04891138  -0.84081748   0.23866116
 C   6.18492801   0.88890537   1.43018307
 H   5.49700751   1.25612313   2.19345729
 C   6.52115108   2.05868339   0.48350510
 C   7.43574084   0.29760521   2.09150769
 H   7.10616879  -0.47527137   2.78444657
 H   7.98456182   1.06742837   2.63792461
 O   6.96061234   1.89028497  -0.68325311
 C   8.31963784  -0.36375118   1.05728279
 N   9.42124892   0.34608775   0.67512718
 H   9.37343753   1.35311437   0.72699644
 H   9.90932399  -0.03770721  -0.11928510
 O   8.04119871  -1.45625146   0.58438448
 N   6.30676753   3.27866952   1.03286690
 H   6.07265094   3.37491352   2.00797934
 C   6.55191448   4.50385084   0.30058425
 H   7.23794990   4.26266326  -0.51703599
 C   7.20046577   5.46570245   1.29381594
 C   5.26518149   5.08892076  -0.33316831
 H   4.63516142   5.44426277   0.48476811
 O   6.88920807   5.45812846   2.47320209
 C   5.57699751   6.25444373  -1.27230016
 H   6.14265902   5.87447142  -2.13155456
 H   4.64892716   6.68887156  -1.65000104
 H   6.15899330   7.04469388  -0.80567561
 C   4.51093411   4.00139999  -1.10377025
 H   5.22295017   3.42800502  -1.70678411
 H   3.77979651   4.46074316  -1.76804425
 H   3.98989229   3.31040583  -0.44399263
 N   8.11738098   6.32551444   0.76777013
 H   8.11968046   6.52828881  -0.22373979
 C   8.54556692   7.48962000   1.49484420
 H   7.79810960   7.75292311   2.25744048
 C   8.63214966   8.63664737   0.44085727
 C   9.90640556   7.34678846   2.17600208
 H   10.15666476   8.32817985   2.58701525
 H   10.67470702   7.09794351   1.43783903
 O   8.93803528   9.75438677   0.85333044
 C   9.89155194   6.30454596   3.28470271
 H   9.73378155   5.31618481   2.85774992
 H   9.03475214   6.50298547   3.93388242
 C   11.17329825   6.30860760   4.09857921
 H   12.02942435   6.18353908   3.42816729
 H   11.29111794   7.28231539   4.58531318
 C   11.22630125   5.21405480   5.14842727
 H   11.20785152   4.24046487   4.65226980
 H   12.16472376   5.27258098   5.70243164
 N   10.08451839   5.29114115   6.09708976
 H   10.22372597   4.70160243   6.91800664
 H   9.21888322   4.99316269   5.65051091
 H   9.94605350   6.24983766   6.41187746
 O   8.36218255   8.28465882  -0.73152439
 H  -6.16943204   3.03485027  -2.28941795
