21
conf-472
 N  -4.71946555  -2.62223144  -12.15980752
 H  -3.99684247  -2.96334441  -11.50647493
 H  -4.28785610  -2.38914097  -13.05482673
 H  -5.39210208  -3.38179295  -12.30065505
 C  -5.45358365  -1.46018003  -11.59632753
 H  -4.77940603  -0.59791003  -11.58482002
 C  -5.81507201  -1.82242675  -10.15720331
 C  -6.68744574  -1.14780781  -12.41972504
 H  -7.19426873  -0.25534732  -12.04490467
 H  -7.38304161  -1.98632498  -12.37373648
 H  -6.41104406  -0.97941805  -13.46342226
 O  -6.67695263  -2.66179776  -9.89975032
 N  -5.07643733  -1.20795989  -9.20388646
 H  -4.33803478  -0.56823758  -9.45371905
 C  -4.96940122  -1.77962019  -7.87616484
 H  -5.90526713  -2.29383831  -7.67657182
 C  -4.73827596  -0.62089549  -6.91847335
 C  -3.79147149  -2.76678254  -7.78288214
 H  -3.81928805  -3.27802929  -6.82270436
 H  -2.85393996  -2.21649520  -7.86823542
 O  -3.96252805   0.28213459  -7.21946374
 C  -3.84558501  -3.77497046  -8.91235077
 N  -4.71226100  -4.80866477  -8.72373133
 H  -4.92769506  -5.35650002  -9.54211699
 H  -5.47458745  -4.66049369  -8.08361848
 O  -3.17772309  -3.64942301  -9.92791916
 N  -5.39570919  -0.65555376  -5.74090528
 H  -5.92181858  -1.47376553  -5.48436277
 C  -5.18519669   0.36385278  -4.71491718
 H  -5.10156574   1.31397354  -5.24870546
 C  -3.87216651   0.06474913  -3.98112493
 C  -6.37606828   0.39631421  -3.76946559
 H  -7.27323229   0.46913942  -4.38351700
 H  -6.43181069  -0.54499492  -3.22304020
 O  -3.83267047  -0.49656546  -2.88766598
 C  -6.32946901   1.56734299  -2.78905226
 H  -6.26158743   2.52285985  -3.31082773
 H  -5.44450013   1.49319223  -2.15154615
 C  -7.53310762   1.59489560  -1.88369792
 O  -8.28342377   0.67560556  -1.67962105
 O  -7.67170322   2.79518457  -1.27495960
 N  -2.75281239   0.44057460  -4.64319334
 H  -2.84594157   0.74373449  -5.60709742
 C  -1.45114824   0.00353806  -4.17142452
 H  -1.61436718  -0.95232386  -3.66249767
 C  -0.91439249   1.00779524  -3.15482428
 C  -0.47983966  -0.19574573  -5.32543244
 H  -0.30718313   0.77082257  -5.80460035
 H  -0.96524624  -0.84927189  -6.05907681
 O  -0.15775038   1.91816204  -3.45263701
 C   0.86995859  -0.80471334  -4.92352894
 H   1.33494431  -0.12631224  -4.19756807
 C   0.71258150  -2.17140201  -4.26524961
 H   0.22896097  -2.87662173  -4.94783359
 H   0.12270536  -2.11389414  -3.34890689
 H   1.69193275  -2.57796673  -3.99971850
 C   1.76991610  -0.89103041  -6.15241319
 H   1.32940663  -1.55603182  -6.89873353
 H   1.90702163   0.09225727  -6.60647871
 H   2.75552684  -1.28170244  -5.89020085
 N  -1.36738550   0.84503283  -1.88223634
 H  -1.92471404   0.02958126  -1.68131731
 C  -0.58701923   1.41597283  -0.79608031
 H  -0.55057546   2.49641165  -0.94933021
 C   0.83905452   0.85802438  -0.86093166
 C  -1.25025350   1.07110336   0.53744214
 H  -2.26520302   1.47608022   0.51220831
 H  -1.34017453  -0.01698968   0.58616813
 O   1.06400708  -0.31363554  -1.14438430
 C  -0.55322363   1.56275278   1.80944827
 H   0.46267408   1.15741966   1.83415273
 C  -0.48069896   3.08343824   1.86724647
 H  -1.48890390   3.50688760   1.85965227
 H   0.07259633   3.51342657   1.02969969
 H   0.01369177   3.40869526   2.78729571
 C  -1.31357434   1.02596661   3.02166321
 H  -2.34131974   1.39441810   3.01745971
 H  -1.33743810  -0.06558775   3.01878823
 H  -0.84357486   1.34954726   3.95426143
 N   1.81456617   1.76140694  -0.57969008
 H   1.56011071   2.64321343  -0.16678809
 C   3.16242921   1.34454077  -0.24565433
 H   3.11523190   0.27657260  -0.01503347
 C   3.55657085   2.12508878   1.01072405
 C   4.12916660   1.51895222  -1.44250651
 H   3.67264995   0.89868039  -2.22501950
 O   2.98039026   3.15869028   1.32941338
 C   5.54923284   0.99961523  -1.19661105
 H   6.11118557   1.18318506  -2.11846472
 H   6.03238575   1.61206755  -0.43269191
 C   4.20810765   2.96359085  -1.93817411
 H   4.70246079   3.59711946  -1.19874971
 H   3.21721616   3.37225745  -2.14135374
 H   4.79062831   3.00386593  -2.86061727
 C   5.66257245  -0.47573622  -0.84946942
 H   6.70723212  -0.74324113  -0.66972461
 H   5.28721477  -1.10372906  -1.66230836
 H   5.10575321  -0.73477164   0.05680598
 N   4.59796524   1.61537139   1.69915463
 H   5.00501358   0.73222136   1.44452810
 C   5.10816102   2.21508065   2.90548641
 H   4.80770837   3.26433069   2.89687616
 C   6.63495509   2.06019383   2.85428659
 C   4.55085407   1.53197052   4.16425690
 H   4.93456985   2.01817389   5.06001323
 H   4.86492224   0.48873117   4.17295808
 O   7.13959048   1.07222748   2.33358075
 C   3.03148877   1.54054196   4.15720663
 N   2.44089851   2.41380382   5.02295328
 H   2.96948151   3.13308818   5.48019506
 H   1.44485066   2.51341750   4.92422594
 O   2.37943983   0.78805723   3.45227062
 N   7.34801290   3.06349758   3.42645111
 H   6.88748682   3.73256852   4.02584757
 C   8.76796460   2.94995780   3.68015680
 H   9.04084425   1.88888822   3.68037792
 C   9.02624819   3.55298347   5.06246844
 C   9.65225375   3.64494162   2.61704591
 H   10.68472408   3.44551853   2.93386329
 O   8.20210629   4.23608368   5.64519280
 C   9.44600544   3.02226345   1.24016307
 H   8.46203261   3.28160164   0.84916261
 H   10.19263426   3.40165216   0.53965963
 H   9.51990730   1.93460481   1.27825055
 C   9.43717549   5.15591834   2.57870851
 H   8.42056350   5.37719250   2.24568916
 H   10.13393616   5.62317196   1.87986905
 H   9.57743535   5.60151212   3.56798907
 N   10.26378288   3.28058693   5.55566521
 H   11.01289728   3.03555139   4.91850336
 C   10.81983888   4.02595408   6.64906493
 H   10.30902514   4.99589136   6.75654901
 C   12.31438139   4.26954014   6.25359330
 C   10.78673449   3.29592751   7.99039589
 H   11.41124956   3.86791236   8.68283348
 H   11.24199612   2.30691092   7.88115806
 O   12.99469543   4.95387791   7.01688630
 C   9.37984907   3.15592873   8.55123901
 H   8.75647762   2.59431769   7.86011622
 H   8.92896070   4.15149996   8.63327570
 C   9.36816615   2.48651553   9.91368581
 H   9.80372789   1.48703491   9.83196045
 H   9.99295415   3.05316415   10.60953053
 C   7.97459891   2.36719148   10.48907197
 H   7.53800958   3.36460599   10.58010872
 H   7.34850972   1.80389434   9.79326139
 N   7.96487545   1.69997972   11.81490652
 H   7.02414669   1.61917148   12.20208937
 H   8.53033920   2.21708995   12.48730843
 H   8.35306290   0.75947561   11.75180130
 O   12.65026239   3.73477937   5.16985812
 H  -8.44536722   2.71398498  -0.70165583
