21
conf-607
 N  -10.84222104   0.16973298  -7.95919749
 H  -11.24122897  -0.43682400  -8.67755693
 H  -11.38196376   1.03144922  -7.90960565
 H  -10.91771579  -0.32296734  -7.06522069
 C  -9.40851975   0.43495283  -8.19759238
 H  -9.25245904   0.67493162  -9.25086729
 C  -8.60598259  -0.81342864  -7.86110854
 C  -8.90937653   1.58237893  -7.32024178
 H  -7.81576423   1.65499412  -7.35697656
 H  -9.19430690   1.37394587  -6.28457891
 H  -9.34833999   2.53540130  -7.61982380
 O  -8.93743280  -1.58215381  -6.97244261
 N  -7.44791600  -0.95991761  -8.58602120
 H  -7.18124763  -0.14356088  -9.11280954
 C  -6.31590184  -1.64249161  -7.96419784
 H  -6.70254387  -2.50991479  -7.43506385
 C  -5.62839976  -0.67149453  -6.98093972
 C  -5.31218792  -2.09932596  -9.01508151
 H  -4.80058603  -1.23687679  -9.45009002
 H  -5.85604288  -2.60837196  -9.81067889
 O  -5.57656994   0.54283909  -7.21031678
 C  -4.31949824  -3.08610703  -8.42002312
 N  -3.13436906  -3.19787963  -9.06857226
 H  -2.46922674  -3.85639474  -8.70403329
 H  -2.93081825  -2.68547349  -9.90671337
 O  -4.58489510  -3.75076658  -7.42827428
 N  -5.08838945  -1.27528183  -5.89629640
 H  -4.96234258  -2.28245555  -5.89681819
 C  -4.42497305  -0.51814007  -4.86722145
 H  -4.12425219   0.44360853  -5.29180583
 C  -3.17820308  -1.27895551  -4.41766004
 C  -5.33483637  -0.23311995  -3.66837761
 H  -5.55921554  -1.16190476  -3.14467968
 H  -4.78912429   0.40392727  -2.97635235
 O  -3.00443697  -2.46202364  -4.64372000
 C  -6.62544968   0.46329017  -4.09614440
 H  -7.32715086  -0.22556771  -4.57110552
 H  -6.40152121   1.23450285  -4.84041826
 C  -7.32700967   1.13061696  -2.94715284
 O  -6.85744107   1.36878948  -1.86400955
 O  -8.59139690   1.48076150  -3.28171794
 N  -2.30199705  -0.55018700  -3.68803852
 H  -2.41759368   0.44354337  -3.57017733
 C  -1.07796160  -1.14787875  -3.19027034
 H  -1.31537882  -2.15595943  -2.84797174
 C  -0.60571414  -0.27929571  -2.03889365
 C  -0.01316131  -1.22334716  -4.28999422
 H   0.20699103  -0.20823382  -4.62772851
 H  -0.46603024  -1.73979189  -5.13706238
 O  -0.56094232   0.94642450  -2.16615918
 C   1.28303503  -1.94346230  -3.92065955
 H   1.78222060  -1.39359092  -3.11421449
 C   1.00672462  -3.37021857  -3.45687495
 H   0.36941403  -3.87649625  -4.18917202
 H   0.50244975  -3.40327714  -2.48895316
 H   1.93495454  -3.93842336  -3.36406340
 C   2.20859595  -1.94247787  -5.13245704
 H   1.76339235  -2.51482946  -5.94726757
 H   2.39248022  -0.92730718  -5.49120520
 H   3.17484174  -2.39030533  -4.88628610
 N  -0.17717003  -0.90106390  -0.92815082
 H  -0.21738419  -1.90519746  -0.87122800
 C   0.44388412  -0.17329839   0.17063295
 H  -0.06713256   0.79376388   0.21605695
 C   1.92500436   0.11187686  -0.12483520
 C   0.27804978  -0.91362682   1.48797885
 H   0.84688975  -1.84429486   1.45386171
 H   0.74115568  -0.30210526   2.26506776
 O   2.82621753  -0.11738684   0.68102410
 C  -1.16759513  -1.20456701   1.88302090
 H  -1.57368915  -1.94257707   1.18195356
 C  -1.19419539  -1.81527193   3.28127499
 H  -0.82733814  -1.09438094   4.01669747
 H  -0.56602454  -2.70762212   3.33932051
 H  -2.20906415  -2.10145611   3.56774202
 C  -2.03547242   0.04774151   1.81764038
 H  -1.58572457   0.84921453   2.41364053
 H  -2.16528966   0.41156963   0.79621573
 H  -3.02935370  -0.15467317   2.22521483
 N   2.17930329   0.62585781  -1.35229402
 H   1.40650805   1.03463217  -1.86270101
 C   3.53293098   0.98973453  -1.72466037
 H   4.16631516   0.22471005  -1.27381667
 C   3.90354928   2.33280968  -1.10835707
 C   3.74504417   0.89677146  -3.23695124
 H   3.63732417  -0.17570993  -3.45037279
 O   3.70315607   3.40645613  -1.66512150
 C   5.16412576   1.32181943  -3.62829157
 H   5.25737697   1.19056924  -4.70995380
 H   5.27319108   2.39484794  -3.42885202
 C   2.71336057   1.64794196  -4.06842413
 H   2.75417050   2.71495025  -3.85651945
 H   1.69724033   1.29397950  -3.87772914
 H   2.92327633   1.50271900  -5.13159438
 C   6.27230205   0.54533443  -2.92737685
 H   7.25062621   0.84792820  -3.30767606
 H   6.17209344  -0.53077293  -3.09252974
 H   6.27609317   0.72354449  -1.84989763
 N   4.45362515   2.24238131   0.12622962
 H   4.32501169   1.38569747   0.64984262
 C   4.97068889   3.42825914   0.77982756
 H   4.14427367   4.12457475   0.95852263
 C   6.00433593   4.09012488  -0.14090337
 C   5.62110578   3.08303474   2.11900344
 H   6.19559117   3.93669345   2.48190760
 H   6.31673619   2.25472921   1.99562291
 O   6.80805717   3.44421342  -0.80086800
 C   4.58675265   2.78445833   3.19687861
 N   5.00187429   1.92361106   4.16493007
 H   5.92481292   1.53213077   4.17202138
 H   4.36882327   1.73114332   4.92148417
 O   3.48994782   3.31358466   3.21735499
 N   5.96264019   5.44955697  -0.15243028
 H   5.43690442   5.96070340   0.53864063
 C   6.97380323   6.23152814  -0.83154684
 H   7.82051975   5.57465753  -1.04296280
 C   7.37585052   7.34197157   0.14236185
 C   6.47957586   6.80688526  -2.18210530
 H   5.72178709   7.55960091  -1.94873719
 O   6.58114479   7.81977419   0.93329735
 C   7.61508623   7.46546499  -2.96633682
 H   8.35764228   6.70371311  -3.23237378
 H   7.22985474   7.89379346  -3.89490998
 H   8.12340064   8.25297055  -2.41370794
 C   5.84126685   5.71257887  -3.03890535
 H   6.54163862   4.88246787  -3.16178218
 H   5.59450035   6.10821779  -4.02511985
 H   4.93068436   5.31556526  -2.59107669
 N   8.65820476   7.77757542   0.04235708
 H   9.22861485   7.60092781  -0.77479054
 C   9.06640667   9.00349813   0.67355798
 H   8.27496737   9.75859220   0.57766510
 C   10.30447200   9.48372276  -0.13444453
 C   9.40942974   8.86244666   2.15131733
 H   8.51334512   8.48970572   2.64918539
 H   9.61264323   9.86431570   2.54007762
 O   10.91266954   10.46739556   0.28474436
 C   10.59353069   7.94484994   2.43151813
 H   11.50022654   8.35666085   1.97482374
 H   10.42516371   6.97227218   1.96741705
 C   10.81147092   7.75927552   3.92181132
 H   10.99533594   8.73019099   4.38933576
 H   9.90504564   7.35048698   4.37614746
 C   11.97251922   6.83991293   4.22869379
 H   11.78922093   5.86690054   3.76667231
 H   12.87939530   7.24580116   3.77410516
 N   12.18581732   6.66347964   5.68677160
 H   12.97074990   6.04453152   5.89221706
 H   11.35803351   6.26758290   6.13091704
 H   12.37362161   7.55809913   6.13799513
 O   10.52513119   8.81310835  -1.16714054
 H  -8.96074084   1.91764028  -2.50235122
