21
conf-34
 N  -5.35822737   0.96545576   3.77876275
 H  -6.11985623   1.23478330   3.16789040
 H  -5.27569134  -0.03890495   3.65105098
 C  -4.12387770   1.57591264   3.30417322
 H  -4.29784424   2.64532391   3.14082396
 C  -3.63268419   0.95373096   1.98913592
 C  -3.02453278   1.45462163   4.36210850
 H  -2.94190899   0.41480048   4.68082894
 H  -2.05981363   1.74955886   3.94298058
 O  -4.09588782  -0.08213005   1.53936730
 C  -3.26976008   2.36802291   5.55708703
 N  -2.83867185   1.87969018   6.75148339
 H  -2.97498212   2.45433107   7.56503405
 H  -2.43242527   0.96781100   6.84263774
 O  -3.76811331   3.47365812   5.44594564
 N  -2.61765214   1.62603358   1.37855695
 H  -2.25017262   2.47457342   1.76995158
 C  -2.02196941   1.15420822   0.14601122
 H  -2.20730622   0.08812244   0.09346935
 C  -0.49313539   1.39993360   0.19530308
 C  -2.60365486   1.85192878  -1.07790791
 H  -2.49820815   2.93694778  -0.94002932
 H  -2.00086770   1.57645436  -1.95065298
 O  -0.06243919   2.57172971   0.26643832
 C  -4.04457365   1.48731872  -1.28170578
 C  -4.39295204   0.32559118  -1.96536726
 H  -3.60436966  -0.29303797  -2.38381526
 C  -5.06346729   2.27344924  -0.73652903
 H  -4.80121557   3.16941925  -0.18246444
 C  -5.72740234  -0.04979343  -2.10168289
 H  -5.97417655  -0.95966265  -2.63634213
 C  -6.40153257   1.90317953  -0.87274392
 H  -7.17521010   2.53020408  -0.44753591
 C  -6.73620448   0.73875973  -1.55220302
 H  -7.77580775   0.44942793  -1.65941699
 N   0.26394399   0.27181163   0.10675607
 H  -0.18809582  -0.58617590   0.37668636
 C   1.70539149   0.31847341   0.30641458
 H   1.91047893   1.19558455   0.92962674
 C   2.32515645   0.47634444  -1.09045931
 C   2.22511850  -0.97013967   0.93927955
 H   3.28577815  -0.87235357   1.17160704
 H   2.12199744  -1.78324939   0.21803683
 O   2.57150316  -0.47314190  -1.81289234
 C   1.42530464  -1.35143353   2.17065299
 N   2.10715776  -1.34937923   3.34221239
 H   1.59056484  -1.55489161   4.17946563
 H   3.04522910  -1.00195796   3.40367771
 O   0.24890230  -1.67241263   2.09405925
 N   2.51979036   1.76299896  -1.47083480
 H   2.11738611   2.46781924  -0.87484751
 C   2.66557767   2.08371031  -2.87278281
 H   2.33467636   1.20612045  -3.44614092
 C   4.11996760   2.28278624  -3.28088960
 C   1.82231660   3.29516456  -3.25655642
 H   2.12602077   4.13729521  -2.62961493
 H   2.04848013   3.56408540  -4.28782722
 O   4.45625357   2.91620152  -4.24928819
 C   0.32708473   3.06322868  -3.08875534
 H   0.01267417   2.21288074  -3.70063324
 H   0.09143179   2.80166593  -2.05843837
 C  -0.46679229   4.30629624  -3.46830176
 H   0.06790801   5.20120886  -3.13044229
 H  -0.54675971   4.37468606  -4.55533897
 N  -1.83463126   4.31533808  -2.92682139
 H  -2.56890242   4.15004370  -3.59413753
 N  -1.24963305   5.25583053  -0.87314375
 H  -1.55115475   5.52185909   0.04939397
 H  -0.36543812   4.76497080  -0.88035537
 N  -3.48974400   5.23788367  -1.56277742
 H  -3.66609263   5.99705730  -0.91912877
 H  -4.08160150   5.29405239  -2.38187704
 C  -2.17446269   4.93943918  -1.79620552
 O   4.99005875   1.62955025  -2.49170704
 H   5.86573402   1.78615560  -2.86903615
