21
conf-950
 N  -4.93146639  -0.48125938   1.48469905
 H  -5.06354542   0.37325292   0.95821581
 H  -4.87969733  -1.23533613   0.80654458
 C  -3.65643732  -0.43194805   2.21581735
 H  -3.66052987   0.46865396   2.83941449
 C  -2.50418494  -0.33901434   1.21643440
 C  -3.46772016  -1.65639311   3.10783164
 H  -3.65399655  -2.54967635   2.50615630
 H  -2.44843173  -1.72224705   3.48689124
 O  -2.25435519  -1.26494156   0.43354876
 C  -4.36349598  -1.68689818   4.34599006
 N  -5.66880661  -1.41052634   4.11914886
 H  -6.27033925  -1.35537286   4.92134282
 H  -5.94931309  -1.05520337   3.21587630
 O  -3.91864552  -1.99006179   5.43989213
 N  -1.80469470   0.81894530   1.23913389
 H  -2.17440426   1.55468450   1.81499539
 C  -1.12355573   1.25493683   0.02155651
 H  -1.42476673   0.54480743  -0.75633356
 C   0.39041811   1.11952796   0.17502270
 C  -1.57804060   2.65785842  -0.39377706
 H  -1.17782220   3.40127281   0.29396245
 H  -1.15163390   2.86599037  -1.37704601
 O   1.17481971   2.03899502  -0.06450845
 C  -3.08161589   2.71618479  -0.41124003
 C  -3.80387272   1.95472477  -1.32975798
 H  -3.26431236   1.38475254  -2.07908659
 C  -3.77534821   3.41112085   0.57604178
 H  -3.22643776   4.00590479   1.30057387
 C  -5.19333392   1.91080692  -1.28020156
 H  -5.73663278   1.29354986  -1.98901683
 C  -5.16434691   3.34052748   0.65030733
 H  -5.68853936   3.86226246   1.44255642
 C  -5.87786143   2.59523237  -0.28046264
 H  -6.95793020   2.51444528  -0.20689379
 N   0.80532281  -0.09321973   0.60083472
 H   0.12529367  -0.83789321   0.65460452
 C   2.21929891  -0.39915438   0.73813774
 H   2.68486467   0.51065395   1.10884573
 C   2.80528681  -0.73469142  -0.63931145
 C   2.40628425  -1.54198406   1.71989620
 H   2.00612000  -2.46531051   1.29866805
 H   1.83814731  -1.30877116   2.62086710
 O   2.97597989  -1.87976380  -1.03090106
 C   3.84549044  -1.81560653   2.11853215
 N   4.62448519  -0.71614546   2.33017719
 H   5.54556253  -0.89283638   2.69280726
 H   4.22416501   0.19780765   2.43956833
 O   4.27057381  -2.95143180   2.23538048
 N   3.08692308   0.35174306  -1.40204433
 H   2.76504200   1.26171525  -1.09802702
 C   3.56058937   0.17310958  -2.75134384
 H   3.98410773  -0.83449247  -2.78251097
 C   4.69186555   1.12098489  -3.10028836
 C   2.43679557   0.25003536  -3.79012914
 H   2.89278469   0.01051951  -4.75475744
 H   1.72131696  -0.54549548  -3.56805492
 O   4.93956293   1.49534423  -4.22152979
 C   1.73999124   1.60481785  -3.86449499
 H   1.16241078   1.79300329  -2.96235446
 H   2.48834093   2.39172052  -3.93442819
 C   0.83182406   1.69517518  -5.08356399
 H   1.36965840   1.36728802  -5.97980995
 H  -0.01919944   1.02262144  -4.96021325
 N   0.26316310   3.03145832  -5.33356949
 H  -0.53724813   3.28131468  -4.77086644
 N   2.28982845   3.91301972  -6.09862756
 H   2.75147595   4.60338811  -6.66923498
 H   2.67183286   2.98220428  -6.12927990
 N   0.40430054   5.28752556  -5.82839162
 H   0.88631011   6.01322113  -6.33844145
 H  -0.60327638   5.30664176  -5.91778293
 C   0.99249308   4.06609030  -5.77584768
 O   5.43411554   1.47634876  -2.03832898
 H   6.13806699   2.04253645  -2.38278521
