21
conf-684
 N  -5.32726008   2.54558700   2.58921897
 H  -5.67123516   3.29358681   3.18085485
 H  -5.02230195   2.97658306   1.72371150
 C  -4.21251165   1.86813606   3.24292792
 H  -3.40330134   2.55473609   3.53738421
 C  -3.65407307   0.83027584   2.26961697
 C  -4.72283894   1.16057143   4.48606602
 H  -5.22311525   1.89088391   5.12640508
 H  -5.46063733   0.40917877   4.19736589
 O  -4.20760375  -0.24798241   2.08161800
 C  -3.57707340   0.54925425   5.27469488
 N  -3.88920647  -0.58281012   5.96082794
 H  -3.15696943  -1.03110077   6.48300084
 H  -4.78606793  -1.02106310   5.87589639
 O  -2.47530602   1.06884897   5.31425660
 N  -2.53538021   1.20828092   1.60729875
 H  -2.00103638   2.00839886   1.90483418
 C  -1.89236239   0.34189865   0.65076389
 H  -2.26937282  -0.66715127   0.82567420
 C  -0.38315729   0.43934411   0.85946512
 C  -2.23875808   0.75107085  -0.79323586
 H  -1.88656701   1.77280332  -0.95378021
 H  -1.68664898   0.10366823  -1.47871725
 O   0.13100852   1.44376427   1.31848842
 C  -3.71740632   0.66373230  -1.04216331
 C  -4.31307478  -0.55985125  -1.34711027
 H  -3.68318025  -1.44216794  -1.43007112
 C  -4.53439656   1.78980787  -0.92277071
 H  -4.08440525   2.74804151  -0.67871800
 C  -5.69070122  -0.66170851  -1.52865657
 H  -6.12900101  -1.62392187  -1.76708562
 C  -5.91205716   1.69247522  -1.09407590
 H  -6.52857487   2.57936733  -0.98947808
 C  -6.49712759   0.46650432  -1.39791655
 H  -7.56943232   0.39168558  -1.53588341
 N   0.34240049  -0.63737854   0.45851673
 H  -0.11062992  -1.36906408  -0.07346435
 C   1.76249106  -0.48085859   0.21610730
 H   2.16085717   0.13664315   1.01950742
 C   2.00471298   0.20645762  -1.13557445
 C   2.45172112  -1.85247085   0.19335789
 H   2.18971969  -2.39804729   1.09913503
 H   3.53635623  -1.72741121   0.13961701
 O   1.18539330   0.18348523  -2.04218482
 C   1.92201542  -2.61847675  -1.00181633
 N   2.73720120  -2.69648827  -2.07938175
 H   2.32040311  -3.07183433  -2.91602059
 H   3.51840851  -2.06127663  -2.16896775
 O   0.80635360  -3.12062426  -0.97971954
 N   3.22964110   0.77738371  -1.25795737
 H   3.88401017   0.68467488  -0.50500674
 C   3.69602257   1.25247542  -2.53725166
 H   2.93717967   0.95426723  -3.26657502
 C   4.96231877   0.55566206  -2.98147350
 C   3.85146860   2.77329566  -2.59602338
 H   4.54446218   3.09910384  -1.82323445
 H   4.30223301   3.00826843  -3.56324526
 O   5.72927183   0.97824594  -3.80558051
 C   2.50825603   3.47138000  -2.46285240
 H   1.82889949   3.07677729  -3.22816261
 H   2.05849360   3.22906942  -1.49917357
 C   2.56012785   4.98560125  -2.62701552
 H   2.98296330   5.25667985  -3.59927013
 H   1.54139255   5.37665300  -2.61266132
 N   3.28626895   5.68837060  -1.55266825
 H   2.85187533   5.65908508  -0.64143789
 N   5.40033202   5.62760662  -2.56679241
 H   6.27931391   6.10371916  -2.69632509
 H   4.96971334   5.26998850  -3.40525633
 N   5.11429016   6.55618089  -0.43300450
 H   6.05207021   6.92485554  -0.49486049
 H   4.48697509   7.09977732   0.14618164
 C   4.59304975   5.97764139  -1.54378853
 O   5.12638975  -0.65305690  -2.39435569
 H   5.95416121  -1.00788591  -2.74958380
