21
conf-727
 N  -4.29441367   0.80609628   3.94829095
 H  -5.14768480   0.87962777   3.39117549
 H  -4.09966738  -0.18838346   4.06973116
 H  -4.45352835   1.20797791   4.87073206
 C  -3.16598067   1.47662075   3.27556919
 H  -3.51263852   2.44009340   2.89527747
 C  -2.68178752   0.68668311   2.03439609
 C  -2.00982618   1.72511516   4.23578042
 H  -1.18946385   2.20466363   3.70191531
 H  -2.34708883   2.43858266   4.98890071
 O  -2.79481459  -0.55566978   1.89045884
 C  -1.50630038   0.46384648   4.92404860
 H  -1.18763647  -0.28509969   4.19182081
 H  -2.29087113   0.00881133   5.53357437
 C  -0.32398804   0.74805107   5.81339864
 O   0.42711282   1.68506902   5.70631328
 O  -0.16235670  -0.20978056   6.75385881
 N  -2.08206089   1.49769842   1.10964524
 H  -1.89936357   2.45769947   1.33968069
 C  -1.53506489   0.95696632  -0.12440630
 H  -1.94644733  -0.04015332  -0.24633144
 C  -0.02668310   0.77425853   0.04205538
 C  -1.98222083   1.74639943  -1.33989661
 H  -1.38459170   1.43693970  -2.20143891
 H  -1.80023426   2.81576736  -1.21145188
 O   0.80723370   1.56528259  -0.39439830
 C  -3.44145144   1.46310491  -1.59593770
 C  -4.26651123   0.54744326  -0.98108851
 H  -4.05446866  -0.11831752  -0.15577540
 C  -4.24709830   2.11239410  -2.59786648
 C  -5.53381769   1.55473862  -2.53787180
 C  -3.97549280   3.12256541  -3.53107018
 H  -2.99027629   3.57380742  -3.59687813
 N  -5.52266782   0.60681503  -1.54138516
 H  -6.30628457   0.03149428  -1.29279208
 C  -6.27711281   2.96019774  -4.29925088
 H  -7.05194611   3.30558289  -4.97299661
 C  -6.56869433   1.96251586  -3.38146618
 H  -7.55464312   1.51572958  -3.31687551
 C  -4.99414634   3.53421624  -4.37259513
 H  -4.80541845   4.31294700  -5.10208395
 N   0.31580169  -0.33423468   0.74882763
 H  -0.40763993  -0.83178678   1.25186318
 C   1.70753013  -0.58505739   1.09330992
 H   2.13257547   0.36313558   1.44112365
 C   2.47701659  -1.07469795  -0.13582782
 C   1.79137879  -1.62612530   2.27780581
 H   1.54913086  -2.59670989   1.77029539
 O   2.61776268  -2.25527647  -0.42053157
 C   3.27634925  -1.74144358   2.73300150
 H   3.91935885  -2.06765118   1.91183515
 H   3.32431085  -2.46114988   3.55307159
 H   3.62061982  -0.77332075   3.10486625
 O   1.00302317  -1.34162772   3.25880244
 N   3.02059716  -0.09054095  -0.90216158
 H   2.61827628   0.83425003  -0.83178415
 C   3.70613924  -0.47293008  -2.11624471
 H   3.03326734  -1.06950130  -2.74707732
 C   4.89789086  -1.34809896  -1.75741990
 C   4.19339810   0.74933706  -2.89311579
 H   4.84093573   0.39548944  -3.69905591
 H   4.81313966   1.35080688  -2.22653987
 O   5.54290122  -1.29133758  -0.74356036
 C   3.07539730   1.59171543  -3.49257665
 H   2.38590022   0.94373160  -4.03879617
 H   2.49204913   2.08549832  -2.71588817
 C   3.63422676   2.64154825  -4.44085642
 H   4.38918459   3.24951129  -3.93027371
 H   4.14402562   2.14305329  -5.26882672
 N   2.62776869   3.52178052  -5.05797847
 H   2.09433133   3.11647604  -5.81416905
 N   2.34556083   4.79357812  -3.11830140
 H   2.11381275   5.69822035  -2.73882446
 H   3.17798791   4.36409503  -2.74984689
 N   0.99117662   5.15664486  -5.00303341
 H   0.99897114   5.16715119  -6.01440430
 H   0.66154506   6.00825774  -4.57377279
 C   2.00954879   4.50439506  -4.39046842
 O   5.20106968  -2.18553141  -2.77987882
 H   5.97729358  -2.67722183  -2.48687023
 H   0.62475925   0.04008668   7.25703950
