21
conf-306
 N  -5.96594764   1.63225639   3.06832012
 H  -6.23746695   1.74328238   2.08206596
 H  -6.24167325   0.69434532   3.37461604
 H  -6.47468139   2.33152165   3.60607946
 C  -4.50426899   1.77495885   3.19803134
 H  -4.20970398   2.74859752   2.80412465
 C  -3.85485701   0.67325414   2.36603312
 C  -4.02496935   1.67103606   4.64682569
 H  -4.18900253   0.64938032   4.99658168
 H  -2.94940422   1.85458452   4.66537926
 O  -4.27745204  -0.47488052   2.39703321
 C  -4.70481622   2.64354248   5.60536080
 H  -4.29258948   2.51362067   6.61076997
 H  -5.77549558   2.44204037   5.69193545
 C  -4.49486890   4.08591256   5.24465425
 O  -3.57164060   4.52488442   4.60246435
 O  -5.45678903   4.87837732   5.76177246
 N  -2.78058156   1.04112863   1.62545427
 H  -2.36344088   1.95522299   1.69951809
 C  -2.13628599   0.12910302   0.71057545
 H  -2.34433857  -0.88034415   1.06182516
 C  -0.64827881   0.46101243   0.71974723
 C  -2.67144142   0.28890896  -0.73392399
 H  -2.22427198  -0.49319426  -1.35810411
 H  -2.33395214   1.25570571  -1.11998905
 O  -0.25085076   1.59211686   0.91603343
 C  -4.16663277   0.19317092  -0.80213034
 C  -4.90663646  -0.93766191  -1.00804922
 H  -4.57589993  -1.94650052  -1.20567728
 C  -5.10992906   1.26139837  -0.57897741
 C  -6.39419408   0.70905548  -0.63134400
 C  -4.96097241   2.63097589  -0.32628443
 H  -3.97087750   3.08144166  -0.26001467
 N  -6.25011925  -0.63750642  -0.89717242
 H  -6.99644590  -1.30105379  -0.98376499
 C  -7.36998544   2.81979346  -0.16710348
 H  -8.23753788   3.43588303   0.03960511
 C  -7.54127503   1.46821649  -0.41694108
 H  -8.52492795   1.01260395  -0.41491968
 C  -6.09625750   3.39596931  -0.12552423
 H  -5.99725545   4.45025615   0.10724320
 N   0.19652395  -0.56973528   0.44351901
 H  -0.17172629  -1.46867563   0.19588713
 C   1.57609586  -0.29655969   0.12253373
 H   1.95720161   0.44949696   0.81873230
 C   1.75782861   0.25903189  -1.29237675
 C   2.43756587  -1.62831653   0.22560756
 H   3.46656499  -1.25406753  -0.05373910
 O   2.63105407   1.06853551  -1.56234077
 C   2.55831194  -2.01416403   1.72415768
 H   2.99046044  -1.18400008   2.28419507
 H   3.21003330  -2.88546140   1.81798866
 H   1.58188673  -2.26488879   2.14299190
 O   2.01784160  -2.56446708  -0.51602043
 N   0.90513351  -0.26293721  -2.21891730
 H   0.41543587  -1.09550352  -1.95075624
 C   1.18989530  -0.09491953  -3.62461737
 H   2.17949325   0.37531034  -3.68642194
 C   0.26056189   0.90181177  -4.30184134
 C   1.21219400  -1.42166711  -4.38312805
 H   1.38869820  -1.19985013  -5.43611832
 H   0.23158685  -1.89759825  -4.32337309
 O   0.03978862   0.91180234  -5.48603616
 C   2.28812201  -2.36934464  -3.87324943
 H   3.25409725  -1.85748652  -3.89755900
 H   2.09685024  -2.64810455  -2.84015340
 C   2.36942270  -3.63801959  -4.70253331
 H   1.42471993  -4.18064386  -4.61252036
 H   2.51269202  -3.39490017  -5.76184186
 N   3.47161695  -4.48404696  -4.20870825
 H   4.27528595  -3.97424948  -3.87443138
 N   2.85103463  -6.29180998  -5.54822429
 H   3.17947135  -7.05476045  -6.11876923
 H   2.16242769  -5.69963542  -5.98523802
 N   4.88334778  -6.32486497  -4.37097431
 H   5.29833689  -6.02086640  -3.49913789
 H   4.88002351  -7.32908647  -4.47754285
 C   3.73300244  -5.69466987  -4.72178993
 O  -0.24603060   1.82613483  -3.45899699
 H  -0.76554679   2.42810072  -4.00817994
 H  -5.22412441   5.78160065   5.50707466
