21
conf-578
 N  -5.65441575   1.30783935   3.45995536
 H  -6.16083031   0.86642183   2.68769299
 H  -5.50585356   0.60155870   4.17820412
 H  -6.20472989   2.07904741   3.83736840
 C  -4.36525586   1.81103243   2.96240493
 H  -4.55126861   2.75700501   2.44007661
 C  -3.83745971   0.83468215   1.91112783
 C  -3.37124303   2.08923716   4.08583683
 H  -3.00937368   1.14520677   4.49823404
 H  -2.51036078   2.60844461   3.65720749
 O  -4.52393997  -0.09447533   1.51750946
 C  -3.94619848   2.92496276   5.23203330
 H  -3.15616133   3.21157817   5.92534517
 H  -4.69049734   2.33940089   5.77745339
 C  -4.61891150   4.13690212   4.67565156
 O  -5.77695586   4.14126715   4.33549383
 O  -3.80516240   5.20751120   4.52187242
 N  -2.61464132   1.12120817   1.40054210
 H  -1.98418851   1.76323441   1.85442815
 C  -1.99970849   0.33287688   0.36305590
 H  -2.42084155  -0.67524754   0.38447240
 C  -0.50833535   0.31774827   0.65932147
 C  -2.22939528   0.94690139  -1.03607341
 H  -1.65465510   0.36663615  -1.76102106
 H  -1.82564997   1.96303661  -1.04007291
 O   0.02622896   1.19600712   1.31368401
 C  -3.67531652   0.95136530  -1.43210892
 C  -4.30074785   0.01796658  -2.21284580
 H  -3.89289039  -0.85443449  -2.69966434
 C  -4.68774033   1.90344574  -1.04501432
 C  -5.90308542   1.47682069  -1.61509080
 C  -4.67041369   3.08075149  -0.27954414
 H  -3.74863091   3.42723101   0.18239954
 N  -5.64078134   0.32605552  -2.32387928
 H  -6.31510845  -0.19897741  -2.84705512
 C  -7.05736022   3.31890971  -0.65760233
 H  -7.96544821   3.88424798  -0.48843288
 C  -7.10303734   2.16721259  -1.43290559
 H  -8.02610340   1.81640295  -1.87892479
 C  -5.85626925   3.76797909  -0.08771744
 H  -5.86215586   4.66961827   0.51310499
 N   0.18754960  -0.72673594   0.11702937
 H  -0.25245831  -1.24028752  -0.62830134
 C   1.61611199  -0.61921845  -0.01846921
 H   1.99171108  -0.10597264   0.86637320
 C   1.95171328   0.19477064  -1.27386781
 C   2.29577302  -2.05454968  -0.10066346
 H   3.41189133  -1.77764628  -0.18263800
 O   1.15634320   0.37731955  -2.18154701
 C   2.18523678  -2.65418776   1.34745772
 H   2.72567671  -2.01122667   2.04614648
 H   2.62870431  -3.65395297   1.37636830
 H   1.14206789  -2.72561677   1.66818555
 O   1.85380759  -2.78008676  -1.03570197
 N   3.21336530   0.70253552  -1.29106665
 H   3.87852478   0.41681868  -0.59015830
 C   3.73949823   1.36367356  -2.46355119
 H   3.11102298   1.09707303  -3.31736854
 C   5.14398071   0.85595494  -2.71195938
 C   3.76855390   2.89462181  -2.33150437
 H   4.26784854   3.29435749  -3.21219120
 H   4.37951941   3.16631458  -1.46706077
 O   5.82337351   0.26183893  -1.91284468
 C   2.37609162   3.49429683  -2.19775585
 H   1.77221025   3.20335605  -3.05561699
 H   1.87721902   3.10160185  -1.31048103
 C   2.38861503   5.01128046  -2.09403979
 H   1.38774618   5.38768467  -1.84199888
 H   3.04496981   5.31748299  -1.27586697
 N   2.90607906   5.67405970  -3.30634058
 H   3.64027351   6.34864520  -3.15962411
 N   0.97031938   5.25161194  -4.53913022
 H   0.33590540   5.61572024  -5.23344850
 H   0.52901181   4.96420640  -3.67792237
 N   2.68222149   6.59405576  -5.43513968
 H   3.69284784   6.67317919  -5.45221148
 H   2.29366217   6.39571255  -6.34827521
 C   2.17801735   5.84104021  -4.41849240
 O   5.57464416   1.17423250  -3.94839747
 H   6.47708117   0.83644108  -4.00891249
 H  -4.33706059   5.90936178   4.12585006
