21
conf-305
 N  -4.07078670   0.79170117   4.64584959
 H  -5.07615764   0.64737877   4.54756892
 H  -3.63211465  -0.13131788   4.66746552
 H  -3.88832781   1.26334342   5.52982604
 C  -3.53095935   1.54061839   3.49850258
 H  -4.09861927   2.46811340   3.36086092
 C  -3.68860253   0.68941186   2.24266164
 C  -2.05523479   1.88883079   3.68548945
 H  -1.51021613   0.98213520   3.94494783
 H  -1.64971471   2.22039238   2.72810931
 O  -3.85507270  -0.51815398   2.29734324
 C  -1.81014729   2.95889996   4.73940405
 H  -2.13250017   2.62817835   5.73304451
 H  -2.36782926   3.87233887   4.52112250
 C  -0.35059579   3.30716268   4.85472617
 O   0.56633361   2.67191160   4.39825006
 O  -0.16246715   4.43868947   5.57346109
 N  -3.60174647   1.36788283   1.05674439
 H  -3.21770229   2.29856805   1.09511129
 C  -3.21372755   0.61701756  -0.13348124
 H  -3.70602264  -0.35216182  -0.07249331
 C  -1.70088684   0.42305878  -0.09012245
 C  -3.68512733   1.33187075  -1.40316622
 H  -4.77791114   1.27106373  -1.40884422
 H  -3.31809566   0.78144684  -2.27411974
 O  -0.93380036   1.37389828   0.07979399
 C  -3.27801876   2.77308909  -1.47379094
 C  -3.91359916   3.81857853  -0.86309818
 H  -4.79700977   3.82477937  -0.24328997
 C  -2.14585028   3.33547073  -2.16828379
 C  -2.16261668   4.72608428  -1.94265613
 C  -1.13084613   2.78265758  -2.95590435
 H  -1.07893260   1.71218339  -3.11537773
 N  -3.25090821   4.99373257  -1.14193044
 H  -3.49562211   5.89292857  -0.77629503
 C  -0.21873817   5.01268484  -3.27467447
 H   0.54839780   5.63969875  -3.71464717
 C  -1.20542376   5.58647442  -2.48598110
 H  -1.23701012   6.65339585  -2.29772920
 C  -0.18567336   3.62799097  -3.51232520
 H   0.59748179   3.21770473  -4.12769292
 N  -1.25849165  -0.85004822  -0.18029701
 H  -1.93050840  -1.59270033  -0.06483677
 C   0.12262156  -1.13444429   0.16453380
 H   0.43849682  -0.32854933   0.83647888
 C   0.96134021  -1.12053440  -1.11002957
 C   0.21350297  -2.51430619   0.94623474
 H   0.17182660  -3.25914113   0.08884721
 O   1.35434589  -2.13893614  -1.66462880
 C   1.68022083  -2.63675332   1.50399562
 H   2.40238958  -2.64564850   0.68640309
 H   1.75965119  -3.56407155   2.07795030
 H   1.89949331  -1.79698028   2.17145409
 O  -0.68473099  -2.65783553   1.82356688
 N   1.22873259   0.10967703  -1.60306722
 H   0.81931700   0.93829662  -1.18433958
 C   2.10740560   0.25084723  -2.74606650
 H   2.78866324  -0.60350673  -2.76007187
 C   2.90416471   1.52430874  -2.59951120
 C   1.30715524   0.23474571  -4.05764440
 H   0.59868157   1.07021168  -4.04619078
 H   0.72053215  -0.68480716  -4.03921904
 O   2.54439705   2.51236057  -2.00937655
 C   2.14954826   0.28245790  -5.32324508
 H   2.74083090   1.19812332  -5.36143443
 H   2.85246331  -0.54876335  -5.32025696
 C   1.28278029   0.20554289  -6.56979498
 H   0.61838500  -0.66276637  -6.51907633
 H   0.64340837   1.09090208  -6.62033366
 N   2.02725069   0.17793805  -7.84216191
 H   2.38403221   1.06973122  -8.15571267
 N   2.70751903  -2.03871975  -7.55360989
 H   2.99744336  -2.89509456  -7.99828755
 H   2.01521518  -2.13308974  -6.82891158
 N   3.53150633  -0.75197118  -9.33667656
 H   3.28410021  -0.02904497  -9.99944861
 H   3.90056689  -1.59573856  -9.74981388
 C   2.73517023  -0.88562771  -8.24756585
 O   4.08765302   1.45040201  -3.24054759
 H   4.50221302   2.31507871  -3.13082257
 H   0.79387123   4.57205558   5.61261189
