21
conf-549
 N  -5.34653246   1.26950355   3.90784683
 H  -5.91868222   0.96093314   3.11707854
 H  -5.17441722   0.45291657   4.49450107
 H  -5.84135079   1.97587979   4.44789925
 C  -4.07398758   1.78552150   3.37331950
 H  -4.21390533   2.82669713   3.06703926
 C  -3.72805035   0.98860944   2.10887538
 C  -2.95814173   1.78360635   4.41978689
 H  -2.64569450   0.75902279   4.63358082
 H  -2.10004355   2.31638127   4.00007041
 O  -4.54312604   0.24097821   1.59011722
 C  -3.36732310   2.47378918   5.72240113
 H  -2.49222574   2.59299221   6.36561093
 H  -4.11231057   1.88715250   6.26292575
 C  -3.90666857   3.83494159   5.39696398
 O  -3.28662341   4.69987039   4.82714117
 O  -5.20126410   3.98943623   5.75607820
 N  -2.49532709   1.21111211   1.59083850
 H  -1.77267021   1.67648801   2.11756791
 C  -2.00636941   0.49477703   0.44544346
 H  -2.52084236  -0.46485937   0.35927332
 C  -0.50696382   0.32686464   0.64962030
 C  -2.21356852   1.27510009  -0.85978626
 H  -1.63470829   0.78398139  -1.64870630
 H  -1.79761691   2.28108938  -0.71595294
 O   0.11856683   1.02121192   1.44080717
 C  -3.63489253   1.42542378  -1.29650676
 C  -4.36800103   2.57681064  -1.25295052
 H  -4.07990247   3.55459569  -0.89541316
 C  -4.47638134   0.42315569  -1.89327522
 C  -5.70840172   1.03168405  -2.18110469
 C  -4.28941016  -0.93162349  -2.20613860
 H  -3.35121834  -1.43868382  -1.99177069
 N  -5.62189567   2.34469760  -1.77265721
 H  -6.34529848   3.03068679  -1.87075973
 C  -6.55843063  -0.99349046  -3.08180928
 H  -7.35473779  -1.56335774  -3.54595382
 C  -6.76800592   0.34285292  -2.77492231
 H  -7.71037991   0.83594183  -2.98608173
 C  -5.33365554  -1.62376971  -2.80243648
 H  -5.20477021  -2.66927406  -3.05374648
 N   0.08892303  -0.57299125  -0.16145039
 H  -0.44869366  -1.03511889  -0.87033242
 C   1.52538038  -0.62706854  -0.28774626
 H   1.92017317  -0.28836638   0.66988712
 C   1.99978613   0.35558411  -1.36699669
 C   1.99711690  -2.11380919  -0.57988845
 H   3.06377487  -1.95411054  -0.92926583
 O   2.52342010   0.03112041  -2.42342364
 C   2.18840795  -2.73358001   0.85670180
 H   2.98099578  -2.18997444   1.37672437
 H   2.47307852  -3.78700204   0.78124848
 H   1.26562355  -2.66104416   1.44291891
 O   1.24100143  -2.77408642  -1.33973906
 N   1.76767073   1.66617731  -1.07510643
 H   1.38768925   1.94688618  -0.18022674
 C   2.15241928   2.69147615  -2.02073383
 H   2.98886548   2.30339580  -2.60435722
 C   2.60657491   3.92643721  -1.28261025
 C   1.01575607   3.04115508  -2.99860242
 H   0.63403825   2.10195315  -3.39906885
 H   1.44176703   3.57612904  -3.84576306
 O   2.37288196   4.17949692  -0.12876721
 C  -0.09797143   3.87261415  -2.38335273
 H  -0.47829530   3.35292808  -1.49797962
 H   0.29501198   4.82989545  -2.02905870
 C  -1.25516341   4.15573816  -3.34024504
 H  -2.07760860   4.61237361  -2.79159090
 H  -0.93921987   4.86758224  -4.10289361
 N  -1.80826120   2.95333330  -3.98867153
 H  -2.32841289   2.33738065  -3.36948171
 N  -0.41305076   3.05296893  -5.84891264
 H  -0.02663830   2.60109825  -6.66123398
 H  -0.62431496   4.03342220  -5.96544924
 N  -1.24692507   0.98193616  -5.12785304
 H  -1.96740409   0.50005926  -4.60424958
 H  -1.08409385   0.58791336  -6.04430260
 C  -1.18490909   2.33668240  -5.00336222
 O   3.28332229   4.76458862  -2.09454826
 H   3.51504198   5.53094923  -1.55502742
 H  -5.45268282   4.88818704   5.50967493
