21
conf-935
 N  -10.56066135  -3.83947816  -11.63383877
 H  -11.55255254  -3.73000332  -11.41073193
 H  -10.14595607  -2.90390899  -11.66920937
 H  -10.47643133  -4.27278892  -12.55190255
 C  -9.85039290  -4.61729757  -10.59577870
 H  -10.42350348  -5.51522645  -10.36247272
 C  -9.70073917  -3.76219501  -9.33627408
 C  -8.45642092  -5.03596673  -11.10105054
 H  -8.58182792  -5.71739207  -11.94618794
 H  -7.93039302  -4.14851223  -11.45314973
 O  -9.41491205  -2.57771685  -9.40017382
 C  -7.60350602  -5.70487263  -10.06514719
 O  -6.44468387  -5.44387838  -9.85226583
 O  -8.27794157  -6.64625357  -9.37087226
 N  -9.86847538  -4.42099732  -8.15181828
 H  -9.82533402  -5.42750256  -8.20416842
 C  -9.27555036  -3.85880860  -6.94052690
 H  -9.27635422  -2.77805348  -7.06098506
 C  -7.83455201  -4.38796923  -6.84885298
 C  -10.05319466  -4.26008796  -5.68345404
 H  -9.96841341  -5.34230738  -5.56248375
 H  -11.10367266  -4.02609715  -5.85096957
 O  -7.58967763  -5.59745499  -6.63452713
 C  -9.55655682  -3.54292566  -4.45038486
 C  -8.35993456  -3.90238451  -3.81692484
 H  -7.75723160  -4.71196705  -4.21904474
 C  -10.27689813  -2.47209212  -3.91258840
 H  -11.20060807  -2.17014567  -4.38695899
 C  -7.92780052  -3.23411605  -2.67287420
 H  -7.00246669  -3.52006804  -2.19073466
 C  -9.84059346  -1.78736211  -2.77933726
 H  -10.42501291  -0.96157698  -2.38807226
 O  -8.17492873  -1.55140918  -1.03321563
 H  -8.77301563  -0.84187192  -0.78708434
 C  -8.65949967  -2.17468881  -2.15423508
 N  -6.89265851  -3.42835486  -7.08874017
 H  -7.18933047  -2.46641928  -7.11189671
 C  -5.46847243  -3.67381338  -6.88625617
 H  -5.32942006  -4.75784367  -6.88131793
 C  -5.10883682  -3.07238585  -5.53662422
 C  -4.65809405  -3.03331413  -8.01156494
 H  -4.74564150  -1.95033836  -7.91755030
 H  -5.11963161  -3.33158875  -8.95247336
 O  -5.30438098  -1.88179170  -5.31397489
 C  -3.21820014  -3.46616551  -7.99770442
 C  -2.27388828  -2.81755216  -7.19442299
 H  -2.57511483  -1.96785654  -6.60334831
 C  -2.79254059  -4.55735086  -8.75749929
 H  -3.49924746  -5.06693248  -9.40054147
 C  -0.95516348  -3.25571110  -7.13537574
 H  -0.22390807  -2.75739939  -6.50912346
 C  -1.47163343  -4.99913597  -8.70969403
 H  -1.16672212  -5.84945776  -9.31067477
 O   0.75604167  -4.72951650  -7.79537321
 H   0.90618776  -5.48886547  -8.36399597
 C  -0.55171022  -4.34723992  -7.89276404
 N  -4.61232669  -3.91741019  -4.60134417
 H  -4.30502764  -4.83683974  -4.86638963
 C  -4.17233792  -3.37632297  -3.32372936
 H  -4.84015209  -2.54208478  -3.10466285
 C  -2.74274491  -2.85412741  -3.47312561
 C  -4.27144378  -4.40383940  -2.20089244
 H  -5.27907902  -4.83141499  -2.22104139
 H  -3.56193972  -5.20828087  -2.39587736
 O  -1.75474897  -3.52584278  -3.20639648
 C  -3.99080500  -3.76405343  -0.86374242
 C  -2.76331456  -3.96536768  -0.23485038
 H  -2.02150590  -4.59332614  -0.71484782
 C  -4.92334092  -2.91079602  -0.26165942
 H  -5.87409017  -2.73968489  -0.74724492
 C  -2.48172722  -3.34579524   0.98238282
 H  -1.52914075  -3.52220126   1.46135238
 C  -4.63755724  -2.27770257   0.94600884
 H  -5.37657777  -1.62192489   1.39415631
 C  -3.41086232  -2.49443183   1.56783202
 H  -3.18467403  -2.00655967   2.50690419
 N  -2.64279147  -1.59631082  -3.98898308
 H  -3.48405531  -1.03681151  -3.99413750
 C  -1.42286325  -0.85008072  -3.74489537
 H  -0.60339059  -1.57118573  -3.77825089
 C  -1.47520411  -0.24161308  -2.33345913
 C  -1.22365051   0.22470401  -4.79873409
 H  -0.29679190   0.77278573  -4.62108639
 H  -1.17800737  -0.23583747  -5.78991320
 H  -2.05954156   0.92835798  -4.78037850
 O  -2.51486824  -0.11490275  -1.70580902
 N  -0.28603373   0.18462549  -1.84749578
 H   0.56909962   0.00290426  -2.34547077
 C  -0.19124683   0.72372648  -0.50451356
 H  -1.03248504   1.39955763  -0.35898362
 C   1.12217872   1.47237014  -0.41472020
 C  -0.24938552  -0.39430288   0.54020268
 H  -1.21965501  -0.88476545   0.44150777
 H   0.50884806  -1.13547005   0.27202371
 O   2.16480596   0.94790244  -0.80014398
 C  -0.01156325   0.01185972   1.99631726
 H   0.97068795   0.50031737   2.05947013
 C  -1.06135009   0.98716814   2.51817515
 H  -2.03395482   0.49354483   2.59310844
 H  -0.77764679   1.34911175   3.50914691
 H  -1.18148976   1.86355624   1.87577297
 C   0.03179178  -1.24875865   2.85972633
 H  -0.94107819  -1.74942412   2.83707770
 H   0.26916612  -1.00415723   3.89728016
 H   0.78171373  -1.95546499   2.49562194
 N   1.08245818   2.71687828   0.12963477
 H   0.26662400   2.93709680   0.68382153
 C   2.31361965   3.34181644   0.62128823
 H   3.09055623   3.10965989  -0.10579712
 C   2.69010077   2.72742282   1.97717465
 C   2.11753001   4.83769377   0.77476763
 H   3.05850688   5.33405490   1.02611707
 H   1.41375122   5.02241992   1.58787238
 H   1.72689170   5.26749515  -0.14604917
 O   1.90985014   2.84029503   2.96300842
 N   3.85864065   2.03599348   1.99029425
 H   4.49612523   2.19203465   1.22960554
 C   4.38405728   1.40036714   3.18806494
 H   3.50620001   1.11404863   3.77444288
 C   5.21544204   2.44834853   3.93444031
 C   5.22863377   0.18734714   2.83094853
 H   5.76361568  -0.15213395   3.72027854
 H   5.99888953   0.49201176   2.12107021
 O   6.43403256   2.54539551   3.79044976
 C   4.43190796  -0.96153174   2.31107994
 C   4.41851306  -2.27403746   2.67215847
 H   4.98057272  -2.74820989   3.46092423
 N   3.54658748  -0.88239274   1.26877767
 H   3.29147561  -0.06781150   0.72530615
 C   3.07095494  -2.12284146   1.03210900
 H   2.35593631  -2.30771116   0.25109838
 N   3.56824236  -2.99894244   1.87079185
 N   4.51034345   3.29500146   4.71279448
 H   3.50130695   3.21311684   4.71881725
 C   5.05673308   4.58054543   5.10502905
 H   5.79909956   4.87364835   4.35524061
 C   5.76273555   4.41392172   6.45258191
 C   3.95822588   5.63800560   5.17658413
 H   4.42231198   6.56119781   5.53939997
 O   5.30453006   4.84973504   7.50551774
 C   3.30822167   5.88206715   3.83252377
 H   4.04983077   6.18827946   3.09111685
 H   2.82090262   4.97629927   3.47783918
 H   2.54602402   6.65611231   3.92536957
 O   2.94220878   5.22357129   6.07802530
 H   3.37122112   5.18185842   6.94208715
 N   6.91874886   3.72123925   6.39987058
 H   7.23704125   3.31143701   5.52728292
 C   7.61660008   3.38230905   7.61834267
 H   7.30635926   4.11386028   8.36635224
 C   9.12068660   3.48284167   7.38505462
 C   7.22861017   1.97715814   8.15456637
 H   6.16107213   2.05562430   8.37822001
 O   9.65374024   3.11136724   6.35145221
 C   7.44944600   0.87978679   7.11333524
 H   8.51299898   0.79458686   6.89081891
 H   6.92098055   1.09227330   6.18006249
 H   7.09705502  -0.07854273   7.50002495
 C   7.97623511   1.62060145   9.44480475
 H   9.03502756   1.43385307   9.24703931
 H   7.54958559   0.71252764   9.87600094
 H   7.90314984   2.41624190   10.19484708
 N   9.82306655   3.97901070   8.44127480
 H   9.34546876   4.19647187   9.29931842
 C   11.23453327   3.70443416   8.60520745
 H   11.52777441   3.00269731   7.82379801
 C   11.31511300   2.99943221   10.01531415
 C   12.07333182   4.96844024   8.55083832
 H   11.73621406   5.64495275   9.33975976
 H   13.11270276   4.71032896   8.77577537
 O   11.20050879   3.74570350   11.00055516
 C   11.98887621   5.63556285   7.18578077
 H   10.95037965   5.84925933   6.93062763
 H   12.35776070   4.93991735   6.43132346
 C   12.77943187   6.93207914   7.09689136
 H   12.37730055   7.66077048   7.80415791
 H   12.67041243   7.37969179   6.10427303
 N   14.21506557   6.81186080   7.41692636
 H   14.43697115   6.84274194   8.40138312
 N   14.69636534   5.64614633   5.45693188
 H   15.40136563   5.34611801   4.80317044
 H   13.86343852   6.03647102   5.04791360
 N   16.29861882   5.81271097   7.16283273
 H   17.00227202   5.50280742   6.50903039
 H   16.64684048   6.39603883   7.91198414
 C   15.07111295   6.10645929   6.66648336
 O   11.41811810   1.75900490   9.97930614
 H  -7.71975630  -6.89735276  -8.61643261
