21
conf-95
 N  -13.64644007  -2.08552032  -5.97042352
 H  -13.39590336  -1.18561101  -6.39160766
 H  -13.79912577  -2.74949093  -6.73732725
 H  -14.50934653  -1.96708504  -5.43914792
 C  -12.52994504  -2.57332977  -5.12869198
 H  -12.27399910  -1.80747486  -4.39103757
 C  -11.33877518  -2.81150510  -6.05383784
 C  -12.90489256  -3.85917603  -4.39487366
 H  -13.87413538  -3.71307490  -3.91096948
 H  -13.01831161  -4.67883799  -5.10512582
 O  -11.47586038  -3.38697635  -7.12319494
 C  -11.92584130  -4.23342459  -3.32122995
 O  -11.13064116  -3.47785583  -2.81189588
 O  -12.05175988  -5.51987928  -2.94373022
 N  -10.15107972  -2.31617345  -5.63414801
 H  -10.00242767  -2.06872169  -4.66674603
 C  -8.98625905  -2.38687809  -6.47704793
 H  -9.12728742  -3.21387761  -7.17438594
 C  -7.76643013  -2.60686721  -5.58878174
 C  -8.78287593  -1.09267543  -7.29284548
 H  -7.89348383  -1.21968951  -7.91109242
 H  -8.55927289  -0.28943084  -6.58286280
 O  -7.74577284  -2.26216555  -4.41454256
 C  -9.96367606  -0.71378565  -8.13488436
 C  -10.06893711  -1.11249439  -9.46836677
 H  -9.27430067  -1.69826208  -9.91787065
 C  -11.00806178   0.04978806  -7.60122918
 H  -10.96024767   0.35699679  -6.56007592
 C  -11.17719578  -0.77814278  -10.24444847
 H  -11.24917783  -1.09546260  -11.27629144
 C  -12.11778213   0.39746208  -8.36542543
 H  -12.91652889   0.98375755  -7.92189052
 O  -13.26950276   0.29547760  -10.49520322
 H  -13.89215111   0.82026744  -9.98551423
 C  -12.20445392  -0.01662233  -9.69265454
 N  -6.69291323  -3.17480254  -6.20637704
 H  -6.71473818  -3.17076874  -7.21023247
 C  -5.36512500  -3.02099081  -5.63647509
 H  -5.45603744  -3.23953214  -4.57139316
 C  -4.88667095  -1.57412491  -5.83594705
 C  -4.38232836  -4.00064992  -6.28801497
 H  -3.38758705  -3.82002132  -5.86871970
 H  -4.32230075  -3.77493425  -7.35494904
 O  -5.34004808  -0.85107655  -6.71379431
 C  -4.77543159  -5.43994256  -6.08186066
 C  -4.73324666  -6.01448373  -4.81263589
 H  -4.39795159  -5.41298452  -3.97416158
 C  -5.21703071  -6.23188138  -7.14188607
 H  -5.25705308  -5.81621465  -8.14202524
 C  -5.10630994  -7.33776636  -4.59927918
 H  -5.06665231  -7.77788000  -3.61072708
 C  -5.60489203  -7.55652829  -6.94586369
 H  -5.94466313  -8.15151092  -7.78666098
 O  -5.91042458  -9.40040663  -5.40548765
 H  -6.19426988  -9.82218024  -6.22030225
 C  -5.54866343  -8.10901317  -5.66973701
 N  -3.91866452  -1.17072801  -4.97389286
 H  -3.48974070  -1.81764654  -4.33324991
 C  -3.31123471   0.13330135  -5.06860802
 H  -3.44467232   0.48899868  -6.09024940
 C  -1.83565179  -0.01004233  -4.72096806
 C  -3.95787192   1.14516441  -4.10249232
 H  -3.86465587   0.75291968  -3.08264067
 H  -3.37761141   2.07066418  -4.13480974
 O  -1.43765070  -0.84914988  -3.93403726
 C  -5.40156863   1.41370766  -4.42173508
 C  -5.77851332   2.48286794  -5.23942666
 H  -5.02156813   3.14188750  -5.64931660
 C  -6.40537332   0.58443361  -3.90919231
 H  -6.12970616  -0.26858527  -3.29444839
 C  -7.12032256   2.72012408  -5.53552999
 H  -7.38635477   3.55243749  -6.17549235
 C  -7.74735556   0.83274170  -4.18619756
 H  -8.49726597   0.17087684  -3.77415592
 C  -8.11006096   1.90378668  -4.99292611
 H  -9.15482727   2.07895897  -5.22518220
 N  -1.00207971   0.89707252  -5.30865715
 H  -1.44960472   1.69123483  -5.73015159
 C   0.28520620   1.18629939  -4.68263789
 H   0.79530886   0.22982310  -4.54702468
 C   0.05404827   1.83141796  -3.30053233
 C   1.08135669   2.12374545  -5.57533092
 H   2.07727660   2.30256937  -5.16432368
 H   1.18528214   1.69545994  -6.57255674
 H   0.56469699   3.08230841  -5.64880115
 O  -0.78455407   2.73127826  -3.13353544
 N   0.85126690   1.31150086  -2.32370501
 H   1.69316123   0.83927312  -2.61263896
 C   0.87596446   1.83091929  -0.97467234
 H   0.21223663   2.69417097  -0.94569916
 C   2.30419207   2.26065123  -0.67097312
 C   0.41311329   0.81186635   0.07250748
 H   1.19677870   0.06460189   0.23332093
 H   0.29403061   1.34047511   1.01988267
 O   3.25634298   1.83050781  -1.31332972
 C  -0.88553571   0.07658210  -0.25874046
 H  -0.72177155  -0.48775778  -1.17787100
 C  -1.20464854  -0.91159092   0.85923098
 H  -1.33974530  -0.38258750   1.80605041
 H  -2.12221557  -1.46560991   0.64688896
 H  -0.39442748  -1.63391183   0.98374462
 C  -2.04368724   1.03947477  -0.48002800
 H  -2.25752049   1.59935350   0.43405469
 H  -2.94623372   0.49132146  -0.76675236
 H  -1.82176284   1.75575726  -1.27071523
 N   2.47064210   3.09837199   0.37935906
 H   1.68310562   3.26406447   0.97902246
 C   3.79812738   3.30693108   0.95663094
 H   4.48444571   3.38351956   0.11143177
 C   4.18155529   2.08463406   1.79136736
 C   3.81989553   4.56525079   1.79461157
 H   4.82037659   4.73838052   2.20094020
 H   3.12027956   4.46459099   2.62504237
 H   3.53338555   5.42349822   1.18467109
 O   3.81217418   1.96302154   2.96793280
 N   4.90780516   1.14780325   1.16362077
 H   5.23880103   1.32097013   0.23019655
 C   5.32492551  -0.07801741   1.82899210
 H   4.47099922  -0.42879094   2.41635643
 C   6.49667864   0.26721482   2.74914464
 C   5.74836322  -1.12379055   0.79798650
 H   6.28221226  -1.93207593   1.29825143
 H   6.46371812  -0.65262383   0.12438486
 O   7.65407195   0.29275745   2.35287964
 C   4.59724957  -1.71799324   0.05928223
 C   4.10791612  -2.98791804   0.00987327
 H   4.47923971  -3.86147791   0.52210585
 N   3.77190028  -0.99012834  -0.75869322
 H   3.83024508   0.00040619  -0.95348205
 C   2.84779099  -1.83439002  -1.26834679
 H   2.08499854  -1.48927953  -1.94521845
 N   3.01242653  -3.05775912  -0.82351915
 N   6.14340911   0.62087565   4.00968869
 H   5.17727524   0.59498846   4.29404101
 C   7.01890779   1.35289974   4.88770436
 H   8.04351993   1.12175972   4.59792933
 C   6.74392687   0.90360322   6.32196702
 C   6.82968615   2.88325478   4.77771360
 H   7.37179043   3.34582867   5.61192806
 O   5.71813977   0.34509434   6.65680263
 C   7.32379276   3.44079329   3.46279957
 H   8.39941295   3.27889154   3.35599290
 H   6.83017229   2.95268131   2.62171737
 H   7.12101833   4.51093369   3.40629990
 O   5.45334989   3.22317752   4.94246776
 H   4.94983837   2.76583376   4.24541080
 N   7.75870795   1.17922708   7.20036693
 H   8.42276660   1.88484249   6.92857074
 C   7.51381919   1.09682916   8.63619179
 H   6.83384229   0.25748570   8.79522263
 C   6.84474476   2.40191165   9.05958141
 C   8.81244195   0.85834700   9.42311266
 H   9.50647915   1.64702313   9.12102574
 O   7.39194716   3.48011926   8.85049225
 C   8.58598877   0.96115815   10.93219071
 H   7.83174876   0.23390021   11.25216801
 H   8.24490902   1.95846860   11.22064217
 H   9.51409664   0.74977816   11.46781611
 C   9.40787595  -0.50449175   9.07791972
 H   8.72739594  -1.29543954   9.40366986
 H   10.36020569  -0.64214406   9.59500301
 H   9.58002764  -0.61795975   8.00664052
 N   5.65521794   2.27566244   9.67473191
 H   5.23924664   1.38824133   9.92473050
 C   4.93198408   3.38123240   10.24299680
 H   5.58934097   3.96166189   10.90824941
 C   3.79694820   2.71307154   11.07830911
 C   4.37014549   4.33324894   9.18276540
 H   5.19562829   4.60169813   8.52798824
 H   3.65104390   3.80104483   8.55851461
 O   3.05092239   3.46522550   11.71778045
 C   3.75166134   5.58924734   9.78098376
 H   4.48920959   6.07007629   10.43447000
 H   2.90307771   5.32615717   10.41529487
 C   3.32729214   6.59177485   8.71324986
 H   4.20811206   7.00585834   8.21951129
 H   2.79361662   7.42655267   9.16745084
 N   2.42006468   6.01198639   7.69795248
 H   1.57628822   5.65160436   8.12559974
 N   4.07355292   5.46452801   6.13606371
 H   4.58640060   4.75145175   5.63544450
 H   4.54981601   6.32411016   6.34045411
 N   2.18874540   4.10875873   6.33403049
 H   2.39823039   3.74080415   5.41478290
 H   1.20468995   4.09091992   6.56550903
 C   2.89817966   5.21349122   6.71488660
 O   3.76160687   1.46439761   11.03106231
 H  -11.40515109  -5.65946363  -2.23897283
