21
conf-306
 N  -11.62834281  -6.96986406  -6.70691663
 H  -12.43980722  -6.68871011  -6.15091423
 H  -11.60424128  -6.38119594  -7.54255907
 H  -11.75374583  -7.94190703  -6.99015462
 C  -10.37022968  -6.77636751  -5.94334519
 H  -10.45572339  -7.27682092  -4.97777433
 C  -10.13728156  -5.28411502  -5.72711538
 C  -9.17490866  -7.32475047  -6.70713668
 H  -9.31177048  -8.38222290  -6.93068475
 H  -9.09720900  -6.78734572  -7.65800182
 O  -9.99846172  -4.52316129  -6.68949346
 C  -7.87448402  -7.14051106  -5.98722298
 O  -7.68266908  -6.34655117  -5.09395100
 O  -6.91451100  -7.95370630  -6.46208517
 N  -10.12812544  -4.87200124  -4.43687328
 H  -9.88651131  -5.56479668  -3.74305752
 C  -9.72747755  -3.50694598  -4.13858053
 H  -9.96646607  -2.92332222  -5.02679369
 C  -8.21443289  -3.49522634  -3.89616785
 C  -10.50514462  -2.90679742  -2.96406462
 H  -11.55577393  -2.87674795  -3.27238708
 H  -10.17280166  -1.86894428  -2.84430573
 O  -7.70418059  -4.06696361  -2.93509121
 C  -10.38158215  -3.62772639  -1.65280990
 C  -11.07645549  -4.81110734  -1.41069341
 H  -11.72285543  -5.21526062  -2.18083965
 C  -9.57885457  -3.11906015  -0.62761752
 H  -9.06206104  -2.17670115  -0.77187463
 C  -10.94358758  -5.50312294  -0.20940263
 H  -11.47378622  -6.42949336  -0.03694184
 C  -9.43549240  -3.79764341   0.57991807
 H  -8.80476006  -3.39464512   1.36667200
 O  -10.01519147  -5.70614249   1.95091276
 H  -9.41626048  -5.24624057   2.54473302
 C  -10.11687183  -4.99509891   0.78926329
 N  -7.47327503  -2.83237733  -4.81723876
 H  -7.92854356  -2.38817836  -5.59594968
 C  -6.01320037  -2.93420522  -4.83316516
 H  -5.76273652  -3.98717067  -4.66382971
 C  -5.42992939  -2.09914859  -3.68136960
 C  -5.47596102  -2.44128623  -6.17847510
 H  -4.41697403  -2.20642663  -6.06839082
 H  -5.97183520  -1.49350377  -6.39393243
 O  -4.97434451  -0.96726929  -3.84751384
 C  -5.61912011  -3.41880855  -7.31634807
 C  -4.46642251  -3.88253905  -7.95870173
 H  -3.49560551  -3.54870921  -7.61448445
 C  -6.84858076  -3.88493816  -7.79313908
 H  -7.77904562  -3.59531756  -7.32516021
 C  -4.52428914  -4.76184871  -9.03509305
 H  -3.62173043  -5.11106900  -9.52121185
 C  -6.92284515  -4.74825582  -8.88753111
 H  -7.89476654  -5.07239036  -9.24568070
 O  -5.77416198  -6.04182083  -10.57760903
 H  -6.68711890  -6.24445961  -10.79791784
 C  -5.76027533  -5.19079749  -9.50702804
 N  -5.43717537  -2.69467168  -2.46095188
 H  -6.00225314  -3.52398182  -2.32999475
 C  -5.01014476  -1.94201115  -1.29066907
 H  -5.33706676  -0.90523912  -1.43221121
 C  -3.48266679  -1.98644511  -1.22397740
 C  -5.62596087  -2.51560116  -0.01326777
 H  -6.69036134  -2.69343939  -0.20116193
 H  -5.15190821  -3.47556323   0.19989146
 O  -2.87446914  -2.95880775  -0.77257754
 C  -5.47980455  -1.56600141   1.14878499
 C  -4.28775501  -1.48651326   1.86889386
 H  -3.47676229  -2.15189452   1.61356421
 C  -6.51752295  -0.69733781   1.49149046
 H  -7.45729077  -0.74666459   0.95298193
 C  -4.13281760  -0.55142565   2.88979561
 H  -3.19593582  -0.49971827   3.41694333
 C  -6.37024679   0.23314283   2.52126719
 H  -7.19384815   0.89414439   2.76630324
 C  -5.17253893   0.31132407   3.22245944
 H  -5.04800659   1.03528014   4.02009833
 N  -2.85567994  -0.89757158  -1.71253414
 H  -3.40436979  -0.24344395  -2.25504684
 C  -1.41005495  -0.87014931  -1.88444555
 H  -1.10311556  -1.89195312  -2.13865776
 C  -0.74697517  -0.49067833  -0.55423111
 C  -1.03951506   0.09569386  -2.99403175
 H   0.04313590   0.13784608  -3.11771158
 H  -1.49457678  -0.23515320  -3.93083176
 H  -1.39669804   1.09808548  -2.75355049
 O  -0.27923304   0.62735346  -0.33618555
 N  -0.72034600  -1.46634475   0.37777001
 H  -1.16228205  -2.35399066   0.16825409
 C  -0.06546991  -1.27627429   1.65828724
 H  -0.24177706  -0.22958056   1.93357852
 C   1.43645939  -1.49666061   1.49219651
 C  -0.67422341  -2.17307325   2.71844240
 H  -1.74445437  -1.93052543   2.75529661
 H  -0.58918339  -3.21488209   2.39944509
 O   2.02109033  -2.49029704   1.90796749
 C  -0.08623103  -2.03711647   4.12871682
 H   0.86751936  -2.57827338   4.14800150
 C   0.19661234  -0.58480874   4.51256760
 H  -0.72021639   0.01068814   4.46946854
 H   0.58898968  -0.53627176   5.53378328
 H   0.93708132  -0.10861291   3.86129662
 C  -1.03054094  -2.69425660   5.12943334
 H  -1.98945280  -2.16870266   5.14615456
 H  -0.62467440  -2.67572174   6.14439896
 H  -1.22013913  -3.73727193   4.86458740
 N   2.08327143  -0.49577878   0.83601285
 H   1.53432849   0.31834291   0.59393175
 C   3.48505562  -0.24891314   1.13105200
 H   3.98792716  -1.21693121   1.12587522
 C   3.61500305   0.38799347   2.54153504
 C   4.07467619   0.71271235   0.10508469
 H   5.16436481   0.73046421   0.16827563
 H   3.70480526   1.72105803   0.31118170
 H   3.78427407   0.41362961  -0.90061982
 O   2.82542782   1.27015748   2.94474767
 N   4.67997899  -0.08386801   3.25875352
 H   5.33678342  -0.70305204   2.81635725
 C   5.05257144   0.51282462   4.53109919
 H   4.14854555   0.98658613   4.92214593
 C   6.11856796   1.58563655   4.29311549
 C   5.54349487  -0.56088166   5.48464422
 H   5.93307186  -0.10220517   6.39587005
 H   6.39385939  -1.07884213   5.03773812
 O   7.29565737   1.43464175   4.61316034
 C   4.46807332  -1.53250449   5.85441285
 C   3.35328686  -2.00904547   5.23049268
 H   2.96251423  -1.73830957   4.26393861
 N   4.49306085  -2.19432385   7.05789806
 H   5.18644816  -2.07003585   7.77581067
 C   3.42781898  -3.02730955   7.10294946
 H   3.23175279  -3.66821745   7.94630460
 N   2.70736451  -2.94735537   6.01568139
 N   5.68847754   2.70452727   3.65941738
 H   4.72260141   2.78768463   3.37284632
 C   6.62393511   3.76458003   3.34922963
 H   7.58088791   3.27525189   3.13959862
 C   6.76587540   4.68420519   4.56192758
 C   6.19662368   4.54977857   2.10447840
 H   5.22502215   5.00670229   2.30395767
 O   6.08807889   5.68890096   4.71673010
 C   7.22971202   5.60102623   1.72361841
 H   7.39734699   6.30676030   2.54188206
 H   8.17572042   5.10452713   1.49467479
 H   6.89304388   6.14703465   0.84115293
 O   5.99113417   3.66619505   1.00764290
 H   6.85477852   3.34111503   0.74470193
 N   7.67389044   4.27511129   5.48575302
 H   8.28913401   3.51400372   5.24745461
 C   8.14239600   5.22203417   6.48107478
 H   7.25674924   5.67441744   6.93847532
 C   8.93190821   6.33637948   5.77357775
 C   8.95931804   4.50834533   7.57310474
 H   9.77800162   4.00201770   7.05473571
 O   9.64452624   6.13044786   4.80456706
 C   9.54861777   5.47208316   8.60261956
 H   8.75590035   6.06745616   9.07152226
 H   10.27710801   6.15804361   8.15958447
 H   10.05693903   4.91015826   9.38877037
 C   8.08810632   3.47150246   8.28036397
 H   7.28351874   3.97827428   8.81950843
 H   8.67957431   2.90790251   9.00522578
 H   7.64282470   2.76901370   7.57420178
 N   8.79043695   7.57064466   6.31248943
 H   8.36538336   7.76239172   7.20679602
 C   9.58289334   8.67409902   5.85235509
 H   10.60696758   8.34512628   5.64217734
 C   9.58568537   9.66886192   7.04725035
 C   8.99680923   9.30201881   4.58621006
 H   8.95269815   8.49847282   3.84803229
 H   7.96229060   9.60505102   4.77590886
 O   10.39061023   10.60458038   6.98356767
 C   9.81674867   10.48018179   4.03454358
 H   9.91753163   10.37148789   2.95299211
 H   10.82333188   10.45180375   4.44844944
 C   9.18961372   11.83832936   4.33614000
 H   9.05389056   11.97448182   5.40824458
 H   8.19891905   11.88997319   3.88194433
 N   9.94272201   12.98267390   3.78899208
 H   9.80641480   13.16937178   2.80644691
 N   11.55350351   12.92641999   5.47176148
 H   12.51235051   13.09049873   5.73665669
 H   11.12836183   12.09829193   5.87246548
 N   11.82384963   14.33315463   3.61200437
 H   12.49217925   14.86154918   4.15754058
 H   11.28537061   14.91115018   2.97741667
 C   11.10676362   13.40266387   4.30532385
 O   8.78643364   9.41564882   7.96894295
 H  -6.11428506  -7.75077096  -5.95739124
