21
conf-647
 N  -5.80187994  -10.01588062  -3.27672854
 H  -5.15164443  -9.82691321  -2.51492060
 H  -6.73337432  -10.10635214  -2.87387540
 H  -5.54012839  -10.88330664  -3.74818640
 C  -5.78276902  -8.91604074  -4.25272880
 H  -4.77289166  -8.83042051  -4.67286165
 C  -6.13354130  -7.60787755  -3.54597130
 C  -6.74872526  -9.17010019  -5.40652429
 H  -7.76934329  -9.25084125  -5.02594923
 H  -6.73453537  -8.33433713  -6.10555656
 O  -6.53692877  -7.58705033  -2.39444472
 C  -6.42690569  -10.43085415  -6.15806658
 O  -5.56864863  -11.22937228  -5.85179811
 O  -7.21614989  -10.59125833  -7.23727729
 N  -6.00182393  -6.48654555  -4.29813106
 H  -5.43224544  -6.50172148  -5.13028167
 C  -6.15422170  -5.18343877  -3.68486186
 H  -7.04400818  -5.21779554  -3.05388684
 C  -6.35157503  -4.16913978  -4.80326836
 C  -4.92536938  -4.80229972  -2.81514679
 H  -5.05900890  -5.27015515  -1.84074561
 H  -4.90369603  -3.71984613  -2.67753790
 O  -5.66195587  -4.17841855  -5.80755093
 C  -3.62682379  -5.26357381  -3.41511375
 C  -3.04951336  -6.47403364  -3.01371894
 H  -3.52068132  -7.03993127  -2.22124781
 C  -2.99644513  -4.54453140  -4.42657679
 H  -3.41769172  -3.59462669  -4.74434468
 C  -1.89924738  -6.96842200  -3.62541535
 H  -1.45569988  -7.90291640  -3.31055129
 C  -1.85630560  -5.03460565  -5.05592249
 H  -1.39632712  -4.46942259  -5.85781188
 O  -0.18517478  -6.77651613  -5.23120707
 H   0.11814448  -6.18057212  -5.92118215
 C  -1.30527686  -6.25046245  -4.65469040
 N  -7.28060060  -3.20620526  -4.57606409
 H  -7.96918831  -3.32255564  -3.85050528
 C  -7.35035252  -2.03887474  -5.45056312
 H  -7.20067140  -2.36503347  -6.48117432
 C  -6.21642885  -1.05229047  -5.13593464
 C  -8.73124602  -1.37861289  -5.29653428
 H  -8.86898779  -1.12425043  -4.24477909
 H  -9.47707515  -2.12998772  -5.55490181
 O  -5.58471148  -0.47072243  -6.00490395
 C  -8.90950783  -0.16334480  -6.16559188
 C  -8.46660083   1.09122999  -5.73956232
 H  -8.00805511   1.18364610  -4.76215850
 C  -9.48692733  -0.25465278  -7.43240131
 H  -9.84810628  -1.21145323  -7.78876389
 C  -8.58489002   2.21880974  -6.54494307
 H  -8.23293425   3.18404730  -6.20573609
 C  -9.61729206   0.86546066  -8.25046002
 H  -10.07179954   0.76847471  -9.23043784
 O  -9.25928999   3.24183885  -8.55802011
 H  -9.67322894   3.02974261  -9.39826765
 C  -9.16361055   2.10538667  -7.80536891
 N  -6.03238106  -0.81890731  -3.80675077
 H  -6.34963672  -1.52026220  -3.16470672
 C  -4.94401479   0.02967447  -3.35334032
 H  -4.77884408   0.75251478  -4.15309250
 C  -3.69038436  -0.83251443  -3.14147228
 C  -5.30240066   0.75315690  -2.05240094
 H  -6.32126609   1.12877385  -2.14561324
 H  -5.28272146   0.02293188  -1.24034786
 O  -3.63648822  -1.61392151  -2.16517505
 C  -4.37165113   1.90433100  -1.78156862
 C  -3.05502260   1.68887082  -1.36237029
 H  -2.73799680   0.66697262  -1.18783403
 C  -4.79346882   3.21503051  -1.99767073
 H  -5.81086084   3.39499288  -2.32073581
 C  -2.18618080   2.76169916  -1.18315733
 H  -1.17366316   2.58343899  -0.85394170
 C  -3.92961527   4.29041099  -1.80152277
 H  -4.28326731   5.30129856  -1.97215241
 C  -2.61885458   4.06566862  -1.39377634
 H  -1.93660876   4.89513684  -1.24915922
 N  -2.72659948  -0.66739969  -4.08614232
 H  -2.87832369   0.05257319  -4.76949277
 C  -1.40659415  -1.28722143  -4.02691734
 H  -1.57123433  -2.30899962  -3.66282972
 C  -0.55351370  -0.53889938  -2.99073376
 C  -0.75904991  -1.26718377  -5.39626487
 H   0.19084530  -1.80809958  -5.37509342
 H  -1.41992721  -1.74785713  -6.12393609
 H  -0.56611666  -0.24265960  -5.71382248
 O   0.04936035   0.49735740  -3.24614245
 N  -0.55432872  -1.10133467  -1.75265734
 H  -1.31479116  -1.74866457  -1.58481708
 C  -0.16730095  -0.27685212  -0.61311230
 H  -0.51079013   0.74444941  -0.81481361
 C   1.34502833  -0.26031058  -0.50671777
 C  -0.80979929  -0.77305856   0.66744210
 H  -1.89815002  -0.73708490   0.54314717
 H  -0.53242209  -1.82030477   0.79673316
 O   1.96205474  -1.08295553   0.16382769
 C  -0.43525176   0.00664929   1.93366240
 H   0.63333710  -0.15994571   2.12896548
 C  -0.65112884   1.50856432   1.77823781
 H  -1.67069978   1.72761970   1.43665654
 H  -0.50727898   2.01283644   2.73688717
 H   0.05809852   1.94739992   1.07611917
 C  -1.22936374  -0.55119918   3.11132801
 H  -2.29865627  -0.38893659   2.95905712
 H  -0.94257473  -0.06247140   4.04502342
 H  -1.05778109  -1.62359254   3.22742033
 N   1.99115020   0.71347718  -1.17271382
 H   1.51504310   1.22485030  -1.90287027
 C   3.41151766   0.88972619  -0.96632299
 H   3.90778101  -0.05832098  -1.20490689
 C   3.68157854   1.19247314   0.51585016
 C   3.93235449   2.00694234  -1.85657482
 H   5.00134016   2.16547407  -1.70101174
 H   3.40555024   2.93335516  -1.62323641
 H   3.76724955   1.76032260  -2.90713028
 O   2.92868071   1.87003171   1.20384094
 N   4.82815328   0.66652545   1.00447110
 H   5.48666488   0.16417973   0.43269608
 C   5.26282385   0.94681785   2.34894493
 H   5.17891287   2.02272725   2.52507189
 C   6.73021369   0.52977677   2.42222945
 C   4.38876687   0.26419186   3.42395943
 H   3.38912143   0.69728546   3.34404327
 H   4.78369851   0.52103246   4.41007588
 O   7.24413743  -0.18756162   1.56667124
 C   4.30790231  -1.22193837   3.30043127
 C   4.86152694  -2.24055164   4.01869880
 H   5.48438083  -2.17325461   4.89930904
 N   3.60609374  -1.83771143   2.29438226
 H   3.07337983  -1.38124513   1.56908686
 C   3.76322219  -3.17357353   2.44416408
 H   3.30211903  -3.87335397   1.76495388
 N   4.51941019  -3.46331984   3.47708754
 N   7.40940756   0.95077189   3.50348884
 H   6.98924969   1.56086896   4.19010291
 C   8.79564903   0.59184511   3.74338911
 H   8.94567922  -0.43062206   3.38967780
 C   9.00353048   0.71311406   5.25079929
 C   9.77190224   1.50998691   2.96024067
 H   9.67658990   2.52151075   3.36924501
 O   8.44378641   1.58275128   5.89340259
 C   11.21059367   1.03253075   3.06032816
 H   11.56702176   1.01839596   4.08621778
 H   11.29501150   0.02375900   2.63651588
 H   11.84709600   1.69849195   2.47410164
 O   9.40812020   1.58897904   1.59769525
 H   8.94608240   0.77365760   1.37429199
 N   9.83817894  -0.20293286   5.82345352
 H   10.48906484  -0.67448639   5.21462441
 C   10.32754817   0.03019073   7.17808098
 H   9.50866385   0.49758339   7.72793735
 C   11.50790123   0.99138743   7.09361573
 C   10.72173292  -1.28451035   7.87567520
 H   11.50514442  -1.73701971   7.26377800
 O   12.41550358   0.81129451   6.29344238
 C   11.27402152  -1.04017646   9.28184578
 H   10.49539891  -0.59613239   9.91336074
 H   12.13873326  -0.37109330   9.29408768
 H   11.57007325  -1.99012967   9.73283863
 C   9.53607788  -2.24158806   7.97405776
 H   8.75576610  -1.79626181   8.59630335
 H   9.85192979  -3.17482174   8.44562266
 H   9.10856460  -2.48109926   7.00016400
 N   11.47900184   2.05864835   7.93935998
 H   10.91165722   1.95763953   8.76710520
 C   12.68628173   2.83019486   8.14263094
 H   13.17111260   2.98195256   7.18209543
 C   13.65797869   2.05057234   9.09758134
 C   12.38006745   4.13808305   8.85212617
 H   11.73885834   4.75003088   8.21625105
 H   11.81587934   3.89489466   9.75947074
 O   14.82476384   1.92716387   8.70528489
 C   13.66551307   4.86948519   9.20782165
 H   14.16807011   5.18764838   8.29290931
 H   14.33866168   4.18443053   9.72663999
 C   13.43738093   6.09282438   10.08644975
 H   14.39012105   6.58021188   10.31311877
 H   13.01515176   5.79013386   11.04661703
 N   12.50132923   7.08904572   9.53151144
 H   11.52431766   6.88352995   9.68209923
 N   13.99713008   7.77825939   7.88158994
 H   14.25394525   8.49015996   7.21701950
 H   14.74903019   7.41931184   8.44658554
 N   11.75735934   8.47440065   7.81991072
 H   12.01360705   9.18116055   7.14659236
 H   10.95168653   8.70433513   8.38630950
 C   12.76338165   7.79249522   8.42216968
 O   13.13698995   1.66778651   10.16650935
 H  -6.94932714  -11.42199277  -7.65501462
