21
conf-156
 N  -12.67833663  -4.45028692  -10.91122657
 H  -12.55712791  -3.72428272  -11.61843724
 H  -12.21844568  -5.28514375  -11.27580479
 H  -13.67402997  -4.63662186  -10.80343436
 C  -12.05092534  -4.03980363  -9.63990158
 H  -12.49508870  -3.09507549  -9.31470808
 C  -10.55436703  -3.82146136  -9.89935790
 C  -12.28252508  -5.08298486  -8.54842489
 H  -13.33873739  -5.36658559  -8.56546337
 H  -11.70712480  -5.98637487  -8.76024357
 O  -10.02583472  -4.21614022  -10.92926098
 C  -11.98950301  -4.61067356  -7.15831842
 O  -11.87377902  -3.44842711  -6.83611333
 O  -11.89188773  -5.61702140  -6.27501730
 N  -9.87151612  -3.19354343  -8.91875381
 H  -10.36917251  -2.79525320  -8.12892115
 C  -8.46783735  -2.84943456  -9.10205737
 H  -7.98166410  -3.69573104  -9.59316907
 C  -7.89470953  -2.60985405  -7.71230767
 C  -8.31538683  -1.58853412  -9.95975543
 H  -8.76704203  -0.75672632  -9.41814553
 H  -8.88784093  -1.74754041  -10.87496217
 O  -8.23929577  -1.63450297  -7.05179571
 C  -6.88121623  -1.29065490  -10.29968662
 C  -6.04278826  -0.62791914  -9.39722785
 H  -6.44419972  -0.32878494  -8.43349815
 C  -6.33916738  -1.68473575  -11.52613200
 H  -6.96741473  -2.19907392  -12.24187946
 C  -4.71664014  -0.35470994  -9.72023862
 H  -4.07750279   0.14586885  -9.00594403
 C  -5.00900689  -1.42545617  -11.85073887
 H  -4.61643299  -1.74335582  -12.81073334
 O  -2.88454415  -0.46306025  -11.20185179
 H  -2.65737904  -0.79721686  -12.07360539
 C  -4.19424680  -0.75437310  -10.94371220
 N  -7.05648747  -3.56716925  -7.24188502
 H  -6.61292709  -4.18909171  -7.89935692
 C  -6.35491115  -3.35381208  -5.98362813
 H  -6.99496862  -2.71089888  -5.37507621
 C  -5.03697427  -2.65992449  -6.31298224
 C  -6.08589686  -4.68607058  -5.27669089
 H  -5.37741446  -5.25401497  -5.88329092
 H  -7.02210530  -5.24323624  -5.24708232
 O  -4.16499252  -3.23640965  -6.95489266
 C  -5.57418661  -4.48336992  -3.87368302
 C  -4.26986777  -4.03493111  -3.64352613
 H  -3.61003107  -3.88336215  -4.49439967
 C  -6.40360073  -4.67353183  -2.76677073
 H  -7.41597607  -5.02250729  -2.91779795
 C  -3.81792057  -3.75525541  -2.35943648
 H  -2.82440562  -3.35365004  -2.20141715
 C  -5.95182220  -4.42641498  -1.47261919
 H  -6.61298722  -4.59061216  -0.62883824
 O  -4.14861269  -3.68016661  -0.03347060
 H  -4.81920907  -3.86248158   0.62938533
 C  -4.65345740  -3.96403052  -1.27269806
 N  -4.91622974  -1.37971621  -5.90144316
 H  -5.54988843  -1.02089376  -5.21086338
 C  -3.66906639  -0.68290004  -6.11496655
 H  -3.28061968  -1.04182845  -7.06902229
 C  -2.60083826  -1.03819601  -5.07095681
 C  -3.90577578   0.83365388  -6.18522902
 H  -2.93687821   1.32840678  -6.09286079
 H  -4.31229281   1.06418599  -7.17442097
 O  -2.83716196  -1.46760209  -3.93723432
 C  -4.86375699   1.32485475  -5.13968445
 C  -6.11307495   1.81917388  -5.50759492
 H  -6.37593532   1.85842061  -6.55914069
 C  -4.53693009   1.25921954  -3.78621779
 H  -3.58302383   0.83121041  -3.50006836
 C  -7.02414492   2.24702961  -4.54364916
 H  -7.98864664   2.63818665  -4.84613350
 C  -5.45396544   1.66104624  -2.81983473
 H  -5.19389104   1.57956394  -1.77236363
 C  -6.69527979   2.16696213  -3.19324600
 H  -7.40135040   2.49034382  -2.43758626
 N  -1.32260259  -0.81099321  -5.50500093
 H  -1.21338700  -0.23004284  -6.31564437
 C  -0.24615918  -0.74848210  -4.53395000
 H  -0.43830366  -1.55237656  -3.81811146
 C  -0.29796144   0.60734892  -3.79758671
 C   1.09376036  -0.95029504  -5.22375844
 H   1.91533237  -0.90764688  -4.50362741
 H   1.11060372  -1.92307043  -5.71650105
 H   1.25914806  -0.17382796  -5.97510416
 O  -0.78040625   1.60353690  -4.31625488
 N   0.23630426   0.59079024  -2.54492509
 H   0.82666096  -0.18078207  -2.27645233
 C   0.57559027   1.81782479  -1.85979464
 H   0.44243844   2.65310233  -2.54615031
 C   2.04736104   1.69555107  -1.47862365
 C  -0.26625926   2.04854797  -0.60338821
 H  -0.10240677   1.21206123   0.08283994
 H   0.11847986   2.93459530  -0.09609318
 O   2.59185403   0.60926820  -1.35451727
 C  -1.76816546   2.21319240  -0.84019875
 H  -2.12527345   1.31789055  -1.36520722
 C  -2.49321029   2.30034365   0.49901683
 H  -2.13939853   3.16495682   1.06563868
 H  -3.57086072   2.41167414   0.35244251
 H  -2.32589616   1.40458191   1.10101945
 C  -2.09153097   3.43274975  -1.69825716
 H  -1.81435499   4.34921236  -1.16952941
 H  -3.16437819   3.47424835  -1.91013162
 H  -1.56639759   3.41057350  -2.65366677
 N   2.70067972   2.87251870  -1.26919824
 H   2.12296072   3.67708071  -1.10389780
 C   3.95804296   2.88083936  -0.53866937
 H   4.57897147   2.08893193  -0.96650090
 C   3.69365446   2.54542966   0.94003353
 C   4.63547490   4.23445712  -0.69017720
 H   5.59528034   4.25204525  -0.17064493
 H   4.00235442   5.01991060  -0.26953850
 H   4.80470982   4.44573059  -1.74699662
 O   2.57312667   2.56443171   1.42606649
 N   4.80163587   2.26587876   1.67267532
 H   5.71408379   2.20511069   1.25404215
 C   4.69381069   1.70762854   3.00296614
 H   4.07577190   2.37364228   3.60803241
 C   6.11547736   1.62938876   3.55659085
 C   4.01207809   0.31761258   3.00714500
 H   3.00749053   0.43582359   2.60773236
 H   3.92980092  -0.03163986   4.04077589
 O   7.08951577   1.69850045   2.82498145
 C   4.74268079  -0.68718435   2.17118692
 C   4.52329690  -1.15792653   0.90786859
 H   3.74651145  -0.85298936   0.22273359
 N   5.89508718  -1.30478427   2.57903569
 H   6.40431438  -1.11394540   3.43794081
 C   6.29867804  -2.12432515   1.58395538
 H   7.18530548  -2.72696418   1.68489307
 N   5.49627176  -2.07061627   0.54625229
 N   6.20725468   1.39860346   4.88586824
 H   5.38619346   1.49635597   5.45882474
 C   7.47948955   1.42749904   5.58538163
 H   7.97219224   2.38759548   5.40044180
 C   8.39441870   0.30597020   5.07140724
 C   7.23031959   1.25978736   7.10128986
 H   6.91299095   0.22571841   7.24423206
 O   7.99241143  -0.85666061   4.92096544
 C   8.45721947   1.56627363   7.93647890
 H   9.30332719   0.91797207   7.68404099
 H   8.75460730   2.60604337   7.77236559
 H   8.22385115   1.43397521   8.99474072
 O   6.14441144   2.07233081   7.52058621
 H   6.45658806   2.97976489   7.57158706
 N   9.66039906   0.71345997   4.81270762
 H   9.98993261   1.59792888   5.16485152
 C   10.71768245  -0.22237442   4.49073137
 H   10.37643928  -1.22920276   4.75204505
 C   11.90045950   0.19491618   5.36784105
 C   11.04539198  -0.21936252   2.98102471
 H   11.49403994   0.74987776   2.75170383
 O   12.05489667   1.35785544   5.70241199
 C   12.02446583  -1.32972822   2.60280062
 H   11.54207398  -2.29936549   2.77478065
 H   12.95098107  -1.30488219   3.17030594
 H   12.27255196  -1.26527823   1.54094905
 C   9.75675835  -0.38013342   2.16924344
 H   9.21302302  -1.25769803   2.53325758
 H   9.98773745  -0.52632316   1.11421013
 H   9.09956245   0.48216673   2.26568546
 N   12.74738415  -0.80620552   5.73029709
 H   12.77928722  -1.67125496   5.20660207
 C   14.04855250  -0.52796818   6.27325288
 H   14.37120225   0.48618940   5.99683346
 C   15.00617675  -1.57536091   5.62869662
 C   14.15166721  -0.67535784   7.79242485
 H   13.81508209  -1.67474716   8.08815999
 H   15.21489198  -0.60793728   8.03042218
 O   16.20387165  -1.48266379   5.89502740
 C   13.35981830   0.38743154   8.53585264
 H   12.29964216   0.30075837   8.30019804
 H   13.67905149   1.37092240   8.19573937
 C   13.52137413   0.30992563   10.04795774
 H   13.12613462  -0.63828790   10.41796167
 H   12.93756400   1.09523540   10.53661143
 N   14.91636699   0.37436439   10.52643299
 H   15.41392038  -0.50350039   10.47706746
 N   15.14172954   2.62601250   9.96127709
 H   15.66262205   3.47948160   10.08367062
 H   14.14107181   2.71655548   10.02459643
 N   17.02579987   1.35138710   10.53554445
 H   17.55126890   2.20592438   10.64706019
 H   17.35827107   0.57500480   11.09177721
 C   15.68581590   1.45867396   10.35644162
 O   14.43658112  -2.40873006   4.88586189
 H  -11.71733179  -5.20938772  -5.41556940
