21
conf-584
 N  -5.83987811   1.36278888   4.31071814
 H  -6.32398163   2.18098423   3.93631737
 H  -6.13721166   0.55180997   3.75676858
 H  -6.09013486   1.22786438   5.28771815
 C  -4.38096724   1.45274200   4.12200849
 H  -4.06480449   2.49920279   4.18019864
 C  -4.07569707   0.88973048   2.72796812
 C  -3.63266102   0.64807740   5.19716570
 H  -3.85148314   1.09464335   6.17245365
 H  -3.99983101  -0.37837661   5.19820576
 O  -4.82894621   0.08269528   2.20645583
 C  -2.13593082   0.58083724   4.96308315
 N  -1.49929640   1.78616730   4.99121831
 H  -0.50543247   1.79232811   4.83167585
 H  -1.94608490   2.58419639   5.39895232
 O  -1.55928344  -0.45913888   4.69078102
 N  -2.93230992   1.31960459   2.14581154
 H  -2.23915686   1.82730865   2.66991559
 C  -2.39974805   0.65562776   0.97780427
 H  -2.56246215  -0.42402169   1.07764381
 C  -0.89093331   0.92971787   0.98434681
 C  -3.08874247   1.09719691  -0.32389249
 H  -2.81276950   0.38292795  -1.10464082
 H  -4.15977168   0.98611847  -0.14661537
 O  -0.34361562   1.53377638   1.89357912
 C  -2.76486944   2.49953298  -0.77410267
 C  -3.35601262   3.59838101  -0.15016977
 H  -4.04853713   3.42755527   0.66781659
 C  -1.87090825   2.72737759  -1.82431539
 H  -1.40800362   1.88410157  -2.32800322
 C  -3.05848579   4.89754891  -0.55727142
 H  -3.53008031   5.73400943  -0.05380142
 C  -1.57564876   4.02609093  -2.23321363
 H  -0.88108996   4.17765554  -3.05110134
 C  -2.16516310   5.11636901  -1.60148427
 H  -1.93207960   6.12587276  -1.92135255
 N  -0.20952726   0.44414233  -0.07039130
 H  -0.66486397  -0.00968077  -0.84532597
 C   1.20472218   0.70339797  -0.23941441
 H   1.43210650   1.72306589   0.08167642
 C   1.48542764   0.52324783  -1.73927556
 C   2.04990350  -0.23772008   0.62425722
 H   2.00068511  -1.26302173   0.25389312
 H   1.62298923  -0.23147663   1.62923655
 O   0.74595355  -0.14801854  -2.44395053
 C   3.49162806   0.23358677   0.72983902
 N   4.39176774  -0.70361760   1.11269011
 H   5.35392671  -0.42005790   1.17454087
 H   4.12583519  -1.65364830   1.29690140
 O   3.81240543   1.39244534   0.50629882
 N   2.59710068   1.14234667  -2.19682693
 H   3.31988820   1.48320739  -1.56556585
 C   3.13518895   0.86408728  -3.49551350
 H   2.80046758  -0.11759340  -3.85756107
 C   4.68205040   0.87011066  -3.33222995
 C   2.81205696   1.92340960  -4.54955519
 H   3.06373239   2.91183441  -4.15140717
 H   3.47826478   1.72441608  -5.39354267
 O   5.33302617   0.46711527  -4.30261992
 C   1.35690744   1.89330525  -4.98782634
 H   1.14321676   0.94611190  -5.48870125
 H   0.71273346   1.92130753  -4.10495519
 C   0.97141862   3.04058098  -5.90311143
 H  -0.10163546   2.98862729  -6.10796548
 H   1.16289736   3.99823388  -5.40062967
 N   1.71154415   2.95174622  -7.17728803
 H   2.64170983   2.56657681  -7.08786494
 N   0.64443485   4.84104471  -8.05234679
 H   0.37935262   5.34028085  -8.88596266
 H  -0.07316194   4.73918488  -7.35452917
 N   2.46510185   3.87104618  -9.16905446
 H   2.22442702   4.41918316  -9.98045398
 H   2.91795248   2.99164226  -9.38021893
 C   1.58733631   3.88196513  -8.13542941
 O   5.10814837   1.29118861  -2.23314572
