21
conf-771
 N  -5.56216958   0.77230177   4.23868592
 H  -5.90067143   0.10055303   3.53684153
 H  -5.09858983   0.22909012   4.98780221
 H  -6.31811978   1.32815559   4.63534729
 C  -4.54219228   1.59449700   3.57506176
 H  -4.97320918   2.54601451   3.23922100
 C  -4.09536701   0.82467160   2.32756093
 C  -3.36345433   1.89453476   4.51535378
 H  -2.62388539   2.52982293   4.02462250
 H  -3.74178784   2.42701344   5.38854548
 O  -4.67364674  -0.18913901   1.96539184
 C  -2.75180691   0.59788399   5.01982683
 N  -1.49143690   0.30940957   4.62770033
 H  -1.12683746  -0.57956555   4.92247821
 H  -1.05865678   0.79296477   3.85157500
 O  -3.39245497  -0.13287887   5.76255417
 N  -3.04543399   1.35398584   1.66234186
 H  -2.56651271   2.16375945   2.01128648
 C  -2.35331749   0.63575321   0.62514291
 H  -2.61797069  -0.42130905   0.71787757
 C  -0.84831022   0.81861915   0.87929290
 C  -2.76892981   1.12493459  -0.77041040
 H  -2.34114638   0.44616970  -1.51451909
 H  -3.85575518   1.02719924  -0.82469701
 O  -0.42704445   1.47209837   1.82680316
 C  -2.34098241   2.54468301  -1.04543241
 C  -3.06761555   3.61106073  -0.52203179
 H  -3.96119294   3.40617008   0.05922429
 C  -1.18823763   2.81402286  -1.78953050
 H  -0.61303899   1.98947102  -2.19951089
 C  -2.66088344   4.92566984  -0.73310165
 H  -3.24367143   5.73976081  -0.31752464
 C  -0.77716768   4.12999896  -1.99590227
 H   0.11865468   4.32721085  -2.57346948
 C  -1.50916515   5.18868840  -1.46894951
 H  -1.18760214   6.21128684  -1.63186215
 N  -0.04218567   0.20486837  -0.00518725
 H  -0.40333151  -0.28353677  -0.81123167
 C   1.39563383   0.37589650   0.01203292
 H   1.64069701   1.41386481   0.26051050
 C   1.85123363   0.02830130  -1.41156030
 C   2.04665075  -0.51287496   1.07177272
 H   1.94153661  -1.56908755   0.81817008
 H   1.51172267  -0.35086507   2.01063120
 O   1.14621267  -0.64956007  -2.14303830
 C   3.50397053  -0.14710517   1.29907379
 N   4.26351954  -1.10114563   1.89151679
 H   5.22871236  -0.88302367   2.06620748
 H   3.88844802  -1.99383914   2.15476397
 O   3.95540306   0.94830240   0.99498120
 N   3.05980738   0.49319277  -1.77604930
 H   3.70621279   0.96132354  -1.14653294
 C   3.67004876   0.12807786  -3.02259499
 H   3.61858191  -0.96193572  -3.16563673
 C   5.15414136   0.57440805  -2.89604798
 C   3.00488729   0.79547070  -4.23107449
 H   1.93164383   0.67577449  -4.10887513
 H   3.19383701   1.86981624  -4.21457800
 O   5.91245394   0.27588578  -3.82901397
 C   3.44359163   0.17877076  -5.55226981
 H   4.51993341   0.30841733  -5.69061194
 H   3.26538325  -0.90309765  -5.51291522
 C   2.67298703   0.74368665  -6.73919488
 H   3.05674111   0.33236482  -7.67255434
 H   1.62225982   0.46096640  -6.66746695
 N   2.77825736   2.21568717  -6.85032339
 H   3.74197847   2.50801250  -6.95632885
 N   0.82781724   2.65207810  -5.64962309
 H   0.27624116   3.27967816  -5.09160201
 H   0.30984075   2.02869399  -6.24962565
 N   2.61620417   4.16370442  -5.54149911
 H   1.98694013   4.89556883  -5.24316263
 H   3.45192533   4.51536592  -5.98761546
 C   2.06624499   3.02382332  -6.03945582
 O   5.43868677   1.19594283  -1.85024127
