21
conf-197
 N  -6.10234913   0.63753363   3.75234956
 H  -6.70560196   1.26407798   3.21843329
 H  -6.22119960  -0.31677081   3.40403117
 H  -6.33276567   0.68395226   4.75441277
 C  -4.68562139   1.00109816   3.59761014
 H  -4.57836261   2.08865302   3.65514994
 C  -4.20331414   0.50957706   2.23348846
 C  -3.84450944   0.35730772   4.70238166
 H  -3.95857931  -0.72692295   4.64498711
 H  -2.78634277   0.57878047   4.56865080
 O  -4.72168697  -0.45435799   1.68968911
 C  -4.28143612   0.77548727   6.10302945
 N  -3.28346267   0.89993293   7.00716943
 H  -3.52587836   1.15467108   7.94897592
 H  -2.32204185   0.74315027   6.76930308
 O  -5.45512077   0.94524637   6.39860498
 N  -3.16123956   1.19116672   1.69224076
 H  -2.63140926   1.86190599   2.22559876
 C  -2.52501071   0.75953594   0.47040828
 H  -2.74304333  -0.30191782   0.33397228
 C  -1.02340216   1.01235614   0.63627613
 C  -3.05674065   1.52999838  -0.75149309
 H  -2.80901053   2.58727509  -0.62931303
 H  -2.53382540   1.17466538  -1.64350205
 O  -0.59686469   1.82263311   1.43934567
 C  -4.54288818   1.36196251  -0.91959161
 C  -5.43341164   2.24179254  -0.29958025
 H  -5.03530195   3.04877141   0.30980146
 C  -5.06463387   0.31174495  -1.67478640
 H  -4.38553973  -0.37652979  -2.16950810
 C  -6.81094128   2.06832260  -0.41881223
 H  -7.48088691   2.76612046   0.07062610
 C  -6.44151929   0.13004152  -1.79171267
 H  -6.82315417  -0.69687260  -2.37949046
 C  -7.31942563   1.00789667  -1.16079714
 H  -8.39097617   0.87178436  -1.25313570
 N  -0.21854002   0.31966899  -0.19901492
 H  -0.57053302  -0.32135911  -0.89325567
 C   1.21610473   0.51968969  -0.21164328
 H   1.43479731   1.59119933  -0.17870606
 C   1.72010983  -0.11805802  -1.51634872
 C   1.89060014  -0.12530613   1.01334777
 H   1.72755108  -1.20409067   1.02646989
 H   1.42331582   0.30184380   1.90118620
 O   1.04294673  -0.92351290  -2.12873680
 C   3.36573099   0.21970993   1.04872421
 N   4.21954442  -0.79709973   1.34728922
 H   5.19202355  -0.57107824   1.21072263
 H   3.94385953  -1.73715539   1.11410108
 O   3.74609899   1.36601961   0.84933235
 N   2.96160155   0.26147611  -1.90633727
 H   3.48462032   0.94034405  -1.37317464
 C   3.73960867  -0.52757536  -2.82662966
 H   3.16388176  -1.42405092  -3.06279812
 C   5.03405697  -0.91498056  -2.00458841
 C   4.10615746   0.24873961  -4.07227248
 H   4.60016785   1.17526329  -3.76844343
 H   4.83957780  -0.33246582  -4.64119959
 O   4.99340519  -2.03674926  -1.46255746
 C   2.87695802   0.54680038  -4.91936081
 H   2.46752355  -0.38664569  -5.31543708
 H   2.09676209   0.97304976  -4.28571820
 C   3.14182497   1.49793491  -6.06875296
 H   2.19455113   1.74105426  -6.55777612
 H   3.56292548   2.43643413  -5.68897380
 N   4.04859078   0.87720832  -7.05533520
 H   4.72717435   0.24411425  -6.65584904
 N   3.96914624   2.74420028  -8.46239700
 H   4.08835764   3.08908132  -9.40119873
 H   3.13533085   3.04572185  -7.98671995
 N   5.48770010   1.00278243  -8.87021292
 H   5.64347728   1.38988368  -9.78815768
 H   5.61384777   0.00079901  -8.81424073
 C   4.48239535   1.54154539  -8.13664583
 O   5.90542984  -0.02933556  -1.93070022
