21
conf-156
 N  -6.04060745   1.29348394   2.43533390
 H  -5.97856110   2.05282853   1.75166457
 H  -6.36157901   0.44061572   1.96630775
 H  -6.68785432   1.53923588   3.19318857
 C  -4.72189304   1.02395037   3.03525817
 H  -4.29745360   1.96109567   3.40915754
 C  -3.83324097   0.44213366   1.94985233
 C  -4.84550853   0.02419635   4.17925191
 H  -5.29756009  -0.89102014   3.79595262
 H  -3.86548570  -0.24086170   4.57475824
 O  -4.23651763  -0.47248902   1.23888414
 C  -5.72891266   0.54129574   5.30914254
 N  -5.43033429   0.05696014   6.53757738
 H  -5.99583485   0.35187040   7.31464138
 H  -4.67402368  -0.58384421   6.69212931
 O  -6.66039905   1.30675495   5.11569822
 N  -2.60636375   0.99658978   1.81942092
 H  -2.25670478   1.67127865   2.48311918
 C  -1.79048788   0.77275339   0.64701331
 H  -2.13220909  -0.16091058   0.20105306
 C  -0.33910653   0.70481589   1.10601249
 C  -1.95967674   1.91281402  -0.37962077
 H  -1.54576730   2.82826243   0.05080926
 H  -1.36865472   1.66883048  -1.26632986
 O   0.07075108   1.40571792   2.01709635
 C  -3.40395790   2.12433605  -0.74458500
 C  -4.05415064   1.25318059  -1.61592151
 H  -3.48601333   0.44063890  -2.06067687
 C  -4.14122765   3.15283324  -0.15553201
 H  -3.65335887   3.82232346   0.54622624
 C  -5.41440999   1.39550145  -1.88888646
 H  -5.90096959   0.70037135  -2.56131145
 C  -5.49326722   3.30935694  -0.44314561
 H  -6.04823289   4.11853659   0.02204733
 C  -6.13927895   2.42447867  -1.29598119
 H  -7.19779228   2.53716683  -1.49682635
 N   0.44710014  -0.18034500   0.43561047
 H   0.16170758  -0.54167652  -0.46258757
 C   1.87718347  -0.21551771   0.64790759
 H   2.19373074   0.71995661   1.11791459
 C   2.53280854  -0.38477804  -0.72482032
 C   2.31989922  -1.37876320   1.55316478
 H   3.41074874  -1.39190643   1.61493417
 H   1.98891305  -2.31585739   1.10488491
 O   1.90261726  -0.71548321  -1.71236029
 C   1.78388583  -1.25077924   2.97027564
 N   0.51165240  -1.72407218   3.12969028
 H   0.06475373  -1.49270547   4.00260141
 H  -0.08187864  -1.80919647   2.31964903
 O   2.44727664  -0.80033939   3.88773288
 N   3.87416118  -0.15917135  -0.72492165
 H   4.39456580  -0.25284587   0.14087665
 C   4.70384323  -0.60966038  -1.80765320
 H   4.19646477  -1.40767690  -2.37134278
 C   5.98109526  -1.20104796  -1.12090334
 C   5.12632386   0.48976139  -2.77989442
 H   5.61559321   1.30131000  -2.23716499
 H   5.87035947   0.05497554  -3.45262934
 O   6.83932446  -1.68969388  -1.85488086
 C   3.95297908   1.03171520  -3.58129217
 H   3.47497727   0.20400317  -4.11748998
 H   3.19634291   1.44140434  -2.91533153
 C   4.38947997   2.08242561  -4.58088510
 H   5.19274114   1.67858722  -5.20119310
 H   3.56223750   2.35933783  -5.24360887
 N   4.89193413   3.26962752  -3.85569784
 H   4.38607863   3.49175049  -3.00997458
 N   5.72909843   4.28390405  -5.79844870
 H   6.50041898   4.86101254  -6.10408314
 H   5.67891732   3.37969613  -6.24489674
 N   5.76994226   5.42818292  -3.77099203
 H   5.81739192   6.29405704  -4.28805367
 H   5.39136078   5.51718637  -2.83766164
 C   5.44476446   4.31817448  -4.47617364
 O   5.97048261  -1.12114459   0.12926142
