21
conf-669
 N  -5.13279376   2.57381635   3.50149771
 H  -5.59059086   1.74111099   3.11018959
 H  -4.62947564   2.28342954   4.35805511
 H  -5.79983385   3.30856593   3.73061844
 C  -4.12984690   3.00938515   2.52091352
 H  -4.54581912   3.78600353   1.86616057
 C  -3.81139722   1.79838373   1.63823484
 C  -2.88213238   3.57613422   3.21207636
 H  -2.16947790   3.95339752   2.47486733
 H  -3.18490902   4.41462645   3.84066349
 O  -4.50355151   0.79234614   1.67316494
 C  -2.26055730   2.53756946   4.13132995
 N  -1.00349696   2.13040598   3.83959584
 H  -0.62306346   1.40210004   4.41782644
 H  -0.62479179   2.24939185   2.90933129
 O  -2.87987753   2.12695085   5.10190855
 N  -2.75387307   1.95534905   0.80450768
 H  -2.11233715   2.71704009   0.93156109
 C  -2.17613808   0.85317387   0.07731268
 H  -2.57965670  -0.07820347   0.48536692
 C  -0.66410571   0.93517096   0.31072095
 C  -2.52717485   0.93236626  -1.41360633
 H  -2.13192240   1.86761573  -1.81474236
 H  -2.02217860   0.11805314  -1.93926216
 O  -0.15501358   1.91281964   0.84573163
 C  -4.01464329   0.84606570  -1.64295768
 C  -4.63065456  -0.37942089  -1.89485740
 H  -4.02733222  -1.27762732  -1.97196473
 C  -4.81509212   1.98999463  -1.56656676
 H  -4.34524535   2.94722124  -1.35793165
 C  -6.01248729  -0.46570258  -2.04807290
 H  -6.46864090  -1.43048163  -2.23906624
 C  -6.19611050   1.91018274  -1.72768168
 H  -6.79427794   2.81199827  -1.66451707
 C  -6.80004005   0.67980904  -1.96275337
 H  -7.87536609   0.61439939  -2.08491300
 N   0.06165863  -0.14490521  -0.06931694
 H  -0.35388711  -0.81068412  -0.70114753
 C   1.51839878  -0.11207854  -0.03843572
 H   1.81250416   0.62007980   0.71054574
 C   2.01785699   0.31595194  -1.41827671
 C   2.08166814  -1.49395509   0.31269690
 H   1.69407354  -2.22763333  -0.39886447
 H   1.75197495  -1.76124490   1.31426459
 O   1.78883854  -0.39762875  -2.40922607
 C   3.60666732  -1.48728992   0.32372360
 N   4.18863010  -1.74302925  -0.88222825
 H   5.18566704  -1.62127312  -0.93314997
 H   3.64240822  -1.65591536  -1.72928599
 O   4.24411010  -1.27878567   1.33982094
 N   2.74315673   1.44731045  -1.45620835
 H   3.14473758   1.88464186  -0.63700537
 C   3.45220124   1.80622965  -2.65432786
 H   3.94259560   0.90669220  -3.05997946
 C   4.53561880   2.81471490  -2.19063127
 C   2.53670430   2.37707314  -3.74587355
 H   1.66433787   1.72163379  -3.76376105
 H   2.19678398   3.37317234  -3.44990266
 O   5.24668860   3.32787398  -3.06295247
 C   3.20851646   2.38372003  -5.11118726
 H   4.14491362   2.94429816  -5.07881685
 H   3.45917989   1.35353196  -5.36850376
 C   2.32714681   2.96228590  -6.20921846
 H   2.11928744   4.01478091  -6.00374617
 H   2.84523392   2.93479060  -7.17264592
 N   1.00858097   2.31643479  -6.35463440
 H   0.29025695   2.66230881  -5.73496294
 N   1.91596089   0.34318892  -7.20285512
 H   1.75297386  -0.50080817  -7.72835539
 H   2.73555124   0.86431206  -7.46920494
 N  -0.35241080   0.44951400  -6.61016676
 H  -0.50823280  -0.40894103  -7.11773168
 H  -1.15971649   1.05499894  -6.54582149
 C   0.85947887   1.04443727  -6.74411676
 O   4.59738896   2.98754638  -0.95462254
