21
conf-746
 N  -5.09531561   0.21063580   2.94236840
 H  -5.19834083   1.12905554   2.50711550
 H  -5.41056893  -0.51643759   2.27724354
 H  -5.69921290   0.16482747   3.76379124
 C  -3.69898606  -0.12138397   3.29670923
 H  -3.39171254   0.52013457   4.13352113
 C  -2.77380072   0.18590000   2.11601262
 C  -3.58518741  -1.57934382   3.73469765
 H  -2.54266846  -1.82417365   3.94630086
 H  -4.14516276  -1.70028234   4.66554929
 O  -2.14971991  -0.68053775   1.50499129
 C  -4.14724491  -2.57486534   2.72935232
 N  -3.62373029  -3.82150463   2.80579898
 H  -3.94877552  -4.51187275   2.15034293
 H  -2.86042732  -4.04151576   3.41873343
 O  -5.03655357  -2.29404388   1.94014933
 N  -2.66889125   1.49579997   1.78707704
 H  -3.23353959   2.16344717   2.28416545
 C  -2.14411503   1.90163100   0.48991553
 H  -2.31093991   1.05941967  -0.18798706
 C  -0.63821925   2.14451465   0.57761887
 C  -2.89399638   3.12679034  -0.04199736
 H  -2.64611006   3.99378015   0.56704719
 H  -2.52742920   3.32865344  -1.04987453
 O  -0.13296683   3.21611611   0.26553740
 C  -4.37518033   2.87312990  -0.04582871
 C  -4.92468378   1.96824415  -0.95451826
 H  -4.27987636   1.52022070  -1.70329362
 C  -5.19911751   3.44038412   0.91909018
 H  -4.78203773   4.14430408   1.63487416
 C  -6.27793134   1.63971896  -0.89948573
 H  -6.68858540   0.94157260  -1.61867657
 C  -6.54539069   3.09781195   0.99378148
 H  -7.16265338   3.52638371   1.77677784
 C  -7.08916763   2.19478802   0.08641015
 H  -8.13806293   1.93034985   0.14449884
 N   0.08591767   1.10782369   1.05336684
 H  -0.37700293   0.21684576   1.17551502
 C   1.52868920   1.16302511   1.09034433
 H   1.81869484   2.14449983   1.47508645
 C   2.12658202   0.99417745  -0.31800179
 C   2.11456138   0.09700630   2.02109750
 H   3.20628679   0.11806505   1.94616130
 H   1.79082125  -0.89943710   1.71870666
 O   1.57175066   0.40482864  -1.22681665
 C   1.77679270   0.36379123   3.48265309
 N   1.62003894  -0.75144126   4.24717197
 H   1.42121696  -0.62060105   5.22347943
 H   1.74029394  -1.67621654   3.87904342
 O   1.69221715   1.48899056   3.94217929
 N   3.36386029   1.55819150  -0.44369025
 H   3.95816242   1.70090820   0.36480760
 C   4.18231862   1.34277485  -1.60204665
 H   3.86986860   0.43066411  -2.12898025
 C   5.63622053   1.17598495  -1.05304838
 C   4.17647259   2.52218939  -2.58023808
 H   4.38743218   3.43966435  -2.02703368
 H   4.99870041   2.37468686  -3.28690300
 O   6.50960794   0.87750570  -1.86774455
 C   2.84801565   2.63616188  -3.31326464
 H   2.74081614   1.80165708  -4.01402251
 H   2.03871676   2.53142082  -2.59898873
 C   2.67270667   3.93658944  -4.08154386
 H   3.45262538   4.04145098  -4.83809815
 H   1.71234119   3.93256162  -4.61183525
 N   2.78324585   5.12575697  -3.21483389
 H   3.31876874   5.90155853  -3.57451559
 N   0.73478127   4.73906434  -2.12016801
 H   0.38106718   4.62015726  -1.17372136
 H   0.64806170   3.91097929  -2.69002797
 N   2.06008970   6.58539852  -1.58357628
 H   1.43406317   6.74908419  -0.80832566
 H   3.01938093   6.87279371  -1.43520212
 C   1.85948730   5.45160584  -2.29857425
 O   5.74811900   1.36754260   0.18150429
