21
conf-293
 N  -4.19136136  -0.02528598   4.27601705
 H  -5.09974969  -0.34988069   3.93975861
 H  -3.53651434  -0.80386585   4.15312340
 H  -4.26054999   0.22736032   5.25924938
 C  -3.67299757   1.07714552   3.44247182
 H  -4.49780143   1.71713240   3.11734219
 C  -3.00534569   0.43177038   2.22119633
 C  -2.67575106   1.94199462   4.21331263
 H  -3.13906057   2.23753677   5.16167014
 H  -1.78428251   1.35884768   4.46162914
 O  -2.67101086  -0.74309286   2.23370237
 C  -2.27649926   3.21638154   3.48391949
 N  -1.13233255   3.80891115   3.90234241
 H  -0.84595916   4.64762757   3.42941857
 H  -0.55870097   3.40892620   4.62231217
 O  -2.96066222   3.69792586   2.58898127
 N  -2.82245062   1.24830856   1.15855330
 H  -2.98298583   2.24088549   1.28663277
 C  -2.10632882   0.79179396  -0.01365564
 H  -2.41914813  -0.23785465  -0.19145103
 C  -0.60195794   0.83303209   0.23824979
 C  -2.42188640   1.68857076  -1.21310444
 H  -1.98052263   2.66746940  -1.02660775
 H  -1.92183498   1.26742020  -2.09030671
 O  -0.03814469   1.87081989   0.58291453
 C  -3.89324364   1.82209408  -1.49365906
 C  -4.52614434   0.93359268  -2.35690614
 H  -3.93729361   0.16507981  -2.85249954
 C  -4.65201233   2.81762061  -0.88196386
 H  -4.16745809   3.51363310  -0.20471203
 C  -5.88968714   1.02881662  -2.60786089
 H  -6.36353856   0.32665913  -3.28165223
 C  -6.01731066   2.92299630  -1.12962751
 H  -6.58906953   3.70333332  -0.64279822
 C  -6.64199026   2.02557730  -1.98979675
 H  -7.70589837   2.10328794  -2.18100297
 N   0.07290603  -0.32303114   0.04419456
 H  -0.39170439  -1.09050718  -0.40811951
 C   1.53043353  -0.35122012   0.13136059
 H   1.77428544   0.22895055   1.01706838
 C   2.10391629   0.32627236  -1.11403858
 C   2.00047052  -1.78338325   0.27600607
 H   1.90836732  -2.31117405  -0.67446131
 H   1.36575054  -2.29502137   0.99697275
 O   2.35659750  -0.28971152  -2.13693568
 C   3.41598459  -1.99703082   0.77955113
 N   4.16783154  -0.89020408   1.03790641
 H   5.13014846  -1.07980622   1.25840758
 H   3.93795707   0.00538044   0.64157588
 O   3.82451038  -3.12668430   0.98000497
 N   2.29144212   1.66627417  -1.00129286
 H   1.80994596   2.15485135  -0.25459029
 C   2.51292847   2.46100226  -2.18226441
 H   3.29365450   2.00130811  -2.78699379
 C   2.95013683   3.86414841  -1.66664193
 C   1.25410719   2.69049201  -3.00124821
 H   0.87447885   1.73840027  -3.36334419
 H   0.50101526   3.14115488  -2.34534783
 O   4.10418948   4.22673006  -1.93399361
 C   1.56820003   3.63795977  -4.15381467
 H   2.19602831   4.44865264  -3.77722199
 H   2.16006645   3.10371794  -4.90125684
 C   0.32104349   4.23771263  -4.78431864
 H  -0.15300672   4.91067623  -4.06694051
 H   0.59808606   4.84218226  -5.64867864
 N  -0.63639792   3.20825494  -5.24966583
 H  -0.20695623   2.45715159  -5.77375615
 N  -2.30426728   3.64855123  -3.65633913
 H  -3.24254855   3.45940867  -3.33473453
 H  -2.02642992   4.61718817  -3.60889995
 N  -2.36431575   1.68312071  -4.91054947
 H  -3.35479387   1.62012230  -4.71193972
 H  -2.10176235   1.23978650  -5.78255267
 C  -1.76109717   2.87061967  -4.61442794
 O   2.07537392   4.47440037  -1.02165675
