21
conf-474
 N  -3.58225137  -2.25562209   3.24923766
 H  -3.66148238  -2.59490689   2.28197351
 H  -2.79256397  -2.76130882   3.68413546
 H  -4.43457116  -2.43508499   3.77900202
 C  -3.25245482  -0.82577056   3.17887172
 H  -4.12621836  -0.21779862   3.43438746
 C  -2.88082647  -0.51512971   1.72899710
 C  -2.11146305  -0.46030224   4.14657938
 H  -1.83297147   0.58962125   4.04434190
 H  -2.45019093  -0.63171037   5.16803632
 O  -2.79558282  -1.40158868   0.88347849
 C  -0.91782751  -1.36622025   3.91763514
 N   0.17517795  -0.79590400   3.35836770
 H   0.91462218  -1.43070857   3.10233199
 H   0.11932640   0.08995328   2.89040742
 O  -0.96226981  -2.54767938   4.23287425
 N  -2.63989692   0.78498390   1.44141527
 H  -2.63380552   1.45982800   2.18709314
 C  -2.06941621   1.18632318   0.16149267
 H  -2.45891811   0.48428406  -0.57374484
 C  -0.54378402   1.05068232   0.23857248
 C  -2.50130773   2.60621223  -0.19528644
 H  -3.55866802   2.69012276   0.06408440
 H  -1.93972915   3.31166518   0.41735202
 O   0.19371576   2.01616447   0.40688903
 C  -2.32718500   2.89849841  -1.66234642
 C  -1.24990329   3.64750972  -2.13425185
 H  -0.52891041   4.03180962  -1.42627504
 C  -3.24047555   2.38857021  -2.58266338
 H  -4.07536387   1.79659457  -2.21743168
 C  -1.09693806   3.88594390  -3.50089712
 H  -0.25833928   4.47084308  -3.84586096
 C  -3.09402847   2.63127245  -3.94565885
 H  -3.81964632   2.22734273  -4.64333392
 C  -2.01764292   3.38044773  -4.40933110
 H  -1.89882619   3.56631218  -5.47177175
 N  -0.07179911  -0.21503331   0.19537298
 H  -0.72609437  -0.97822897   0.07948587
 C   1.33530638  -0.52471360   0.31488310
 H   1.72542628  -0.17219468   1.27260830
 C   2.13889188   0.15485412  -0.79716281
 C   1.54602710  -2.03499671   0.14501176
 H   1.10688138  -2.33019336  -0.81074927
 H   1.05858181  -2.57219993   0.95706850
 O   1.82759208   0.01463976  -1.98771443
 C   3.02550862  -2.34528788   0.19237528
 N   3.63923714  -2.42940204  -1.02452912
 H   4.64830655  -2.37594526  -0.99894887
 H   3.17198901  -2.00881920  -1.81474956
 O   3.61373521  -2.48169110   1.25301245
 N   3.23638078   0.83692503  -0.36829483
 H   3.75713842   0.54758885   0.45249657
 C   4.12448391   1.42496217  -1.32452929
 H   3.95601969   0.97155226  -2.31095298
 C   5.56193822   1.08287972  -0.84364146
 C   3.97259088   2.93935221  -1.45200469
 H   4.25411519   3.40979310  -0.50443232
 H   4.68063467   3.26444369  -2.21516892
 O   6.49286446   1.44637083  -1.56361831
 C   2.54163689   3.30518122  -1.82320667
 H   2.20189622   2.61979313  -2.60635612
 H   1.88373310   3.13193427  -0.97317432
 C   2.36579912   4.73394737  -2.30444278
 H   2.93037243   4.89747693  -3.23059198
 H   1.30455559   4.90658611  -2.52858547
 N   2.79325707   5.68353187  -1.25599998
 H   3.55031647   5.34710267  -0.67839622
 N   2.26011312   7.55457148  -2.56089438
 H   2.00974823   8.53028999  -2.54864095
 H   1.68982674   6.96669232  -3.14409002
 N   3.41570839   7.79673949  -0.53432867
 H   3.22195510   8.78551298  -0.57546781
 H   3.50549126   7.42832592   0.40357164
 C   2.80122643   7.00970177  -1.45181418
 O   5.61130168   0.44347640   0.23751127
