21
conf-474
 N  -4.21507094  -2.78775141  -5.14271228
 H  -3.76173502  -2.01638534  -5.64532774
 H  -5.10693640  -3.00294273  -5.58646130
 H  -3.60318151  -3.59927468  -5.23440472
 C  -4.37202454  -2.44962810  -3.70968668
 H  -4.92699585  -1.50596987  -3.64187819
 C  -2.96607523  -2.17642440  -3.16224881
 C  -5.16718075  -3.50108206  -2.91874106
 H  -6.21619123  -3.32683960  -3.19309293
 O  -2.11492709  -3.07950922  -2.97060087
 C  -5.02429173  -3.29600866  -1.40835922
 H  -3.95984225  -3.40590095  -1.16011087
 H  -5.54904311  -4.11061502  -0.90182929
 C  -4.82354449  -4.93850635  -3.29356915
 H  -3.76025955  -5.12047592  -3.14473111
 H  -5.38529353  -5.63484402  -2.67080966
 H  -5.07148830  -5.14726389  -4.33394789
 C  -5.55717372  -1.96881607  -0.89417916
 H  -5.45814198  -1.89510181   0.19039987
 H  -5.02623306  -1.11764969  -1.32518923
 H  -6.61844536  -1.85212464  -1.13113738
 N  -2.71592272  -0.85671458  -2.91336658
 H  -3.39169030  -0.20292899  -3.26501945
 C  -1.33582501  -0.37744997  -2.92117703
 H  -0.71946561  -1.22305809  -3.24331104
 C  -0.91739618  -0.03359453  -1.49566043
 C  -1.15877425   0.75705263  -3.92997111
 H  -0.08988222   0.97557627  -4.01319990
 H  -1.63844990   1.66444064  -3.56686715
 O  -0.53096260   1.08748828  -1.15910093
 C  -1.73929406   0.34893491  -5.26034998
 C  -1.16364780  -0.68222468  -5.99766971
 H  -0.27074996  -1.16952911  -5.61639436
 C  -2.92218385   0.91692827  -5.72009061
 H  -3.39823227   1.70801877  -5.14657300
 C  -1.72453634  -1.09740663  -7.20102577
 H  -1.26886562  -1.91276452  -7.75346988
 C  -3.50999602   0.47832967  -6.90116295
 H  -4.45361463   0.90343380  -7.22326567
 C  -2.90675285  -0.52169734  -7.65288436
 H  -3.37958559  -0.88555481  -8.56007039
 N  -1.03804615  -1.05260132  -0.61383007
 H  -1.24385027  -1.97466375  -0.97248227
 C  -0.62929142  -0.89838019   0.77486056
 H  -0.90045782   0.12365200   1.05376385
 C   0.89592597  -1.05859012   0.83477422
 C  -1.35109640  -1.88906404   1.69386745
 H  -1.01459471  -2.88587146   1.40309134
 O   1.44588307  -2.12697739   1.07356608
 C  -0.98627409  -1.64246876   3.15923317
 H  -1.28027714  -0.63003162   3.44731427
 H  -1.51393465  -2.34743556   3.80577425
 H   0.08508896  -1.75427973   3.32850988
 C  -2.86156857  -1.79442924   1.50853880
 H  -3.21937787  -0.82587068   1.87000902
 H  -3.14898056  -1.89382496   0.46132943
 H  -3.36351174  -2.58191588   2.07678917
 N   1.59823574   0.06796527   0.56990053
 H   1.13312659   0.90301793   0.23395087
 C   3.03210648   0.01906213   0.43862224
 H   3.41609399  -0.69622307   1.16703043
 C   3.59646729   1.41340947   0.71907315
 C   3.48389965  -0.44775431  -0.95131312
 H   4.57191775  -0.55833698  -0.94795971
 H   3.05823057  -1.43084211  -1.13045003
 O   2.90820730   2.41766698   0.71860203
 C   3.08510247   0.53683365  -2.04635552
 H   3.54992071   1.50803684  -1.85754544
 H   2.01164024   0.71014332  -2.04784176
 C   3.52714751   0.07049985  -3.42467500
 N   2.84325533   0.64964552  -4.46424319
 H   2.27856343   1.46730307  -4.31578737
 H   3.21198630   0.48990598  -5.38627492
 O   4.41316728  -0.74150075  -3.60814509
 N   4.94117689   1.41046684   0.91971700
 H   5.50554723   0.65145536   0.55285204
 C   5.71600066   2.61838644   0.89000102
 H   5.19876045   3.40166144   0.31350835
 C   7.04134317   2.23150551   0.15966880
 C   6.08035424   3.17268909   2.26623578
 H   6.86774815   3.91388729   2.10310913
 H   6.50380489   2.37182712   2.87954660
 O   7.85255525   3.13489472  -0.04531114
 C   4.89196297   3.80149932   2.97789648
 H   4.52055161   4.63619221   2.37041846
 H   4.07571099   3.07946151   3.03028979
 C   5.22779650   4.31363098   4.37101601
 H   5.62306785   3.49328828   4.98069985
 H   4.31247514   4.65919220   4.85946245
 C   6.23048998   5.44834702   4.37145698
 H   7.17757743   5.10029207   3.95300668
 H   5.86754977   6.25213419   3.72595168
 N   6.47860528   5.97352882   5.73771454
 H   7.15919511   6.73339506   5.74308913
 H   6.83272554   5.23972392   6.34955903
 H   5.61823768   6.32776829   6.15285181
 O   7.12672111   1.01982700  -0.15361745
