21
conf-428
 N  -3.44500390  -5.41854014  -2.29740589
 H  -3.40058151  -5.70776670  -3.27477102
 H  -4.12075709  -5.99602670  -1.80177252
 H  -2.52566065  -5.56824033  -1.87938166
 C  -3.75674814  -3.98281871  -2.18049001
 H  -4.49280005  -3.71416320  -2.94713274
 C  -2.47550827  -3.20035073  -2.46405258
 C  -4.34743973  -3.60717513  -0.80032134
 H  -4.32755168  -2.50964531  -0.74325813
 O  -1.36372769  -3.67261178  -2.21156732
 C  -3.51089032  -4.15833486   0.35937497
 H  -2.45938616  -4.19227049   0.06788047
 H  -3.80503930  -5.19471216   0.54603713
 C  -5.80409832  -4.05535080  -0.68322479
 H  -5.90115434  -5.13312464  -0.83433752
 H  -6.20320369  -3.82944469   0.30711694
 H  -6.43186880  -3.55362497  -1.42259095
 C  -3.65680737  -3.34475088   1.63697244
 H  -3.11056331  -3.79887220   2.46584675
 H  -3.25724085  -2.33538745   1.49331222
 H  -4.69969027  -3.24698009   1.93948962
 N  -2.63706053  -1.94382258  -2.92861626
 H  -3.54216861  -1.66433502  -3.26517038
 C  -1.49902180  -1.14305888  -3.36344434
 H  -0.74098163  -1.84629183  -3.71870558
 C  -0.91113464  -0.34638921  -2.18998205
 C  -1.90890188  -0.20515213  -4.50426885
 H  -1.01737376   0.33258461  -4.83118417
 H  -2.60134818   0.54295427  -4.11955937
 O  -0.74466122   0.86873970  -2.23392640
 C  -2.53792878  -0.95387184  -5.64285113
 C  -1.78047458  -1.83730997  -6.40970217
 H  -0.72196827  -1.94364830  -6.19556130
 C  -3.89812414  -0.82944989  -5.90986663
 H  -4.49822140  -0.14909960  -5.31354669
 C  -2.36903237  -2.56903497  -7.43816361
 H  -1.76145109  -3.24556232  -8.02853654
 C  -4.49659889  -1.56766679  -6.92783750
 H  -5.55791456  -1.45872980  -7.11922005
 C  -3.73177790  -2.44023733  -7.69540262
 H  -4.19263694  -3.01483595  -8.49090893
 N  -0.60714107  -1.07685667  -1.08518274
 H  -0.58677670  -2.08542696  -1.16376947
 C   0.06013350  -0.42074621   0.01778808
 H  -0.28949964   0.61579486  -0.00802246
 C   1.57167159  -0.41353875  -0.20090366
 C  -0.32849252  -0.96325450   1.40377230
 H  -1.37762647  -0.66606082   1.52641690
 O   2.29608705  -1.36655293   0.04813117
 C  -0.24094939  -2.47342432   1.55611330
 H   0.76650574  -2.82390723   1.33520709
 H  -0.48926894  -2.75991358   2.58243596
 H  -0.94190833  -2.99020167   0.89425458
 C   0.53012728  -0.25657212   2.45887756
 H   1.50753880  -0.73960100   2.48905136
 H   0.69147867   0.79558044   2.21093965
 H   0.07753521  -0.32656237   3.45109460
 N   2.04785985   0.76787688  -0.69053232
 H   1.37220074   1.50375281  -0.80989388
 C   3.39383532   1.20412208  -0.34524235
 H   4.04034954   0.33128451  -0.42750669
 C   3.41103038   1.74271877   1.10728445
 C   3.83884404   2.32769671  -1.28431481
 H   3.53007146   2.07796398  -2.29607459
 H   3.30067051   3.22918207  -0.99092526
 O   2.48257000   2.43674308   1.55137502
 C   5.34459548   2.56983353  -1.25172338
 H   5.86948075   1.69942260  -1.66013174
 H   5.71200615   2.69409098  -0.23594898
 C   5.75487170   3.77501822  -2.09362663
 N   7.01584667   4.24266085  -1.85087417
 H   7.59972465   3.87455728  -1.12187908
 H   7.32266883   5.04208475  -2.37574321
 O   5.03847450   4.26849139  -2.94464261
 N   4.54535052   1.43471956   1.80546085
 H   5.38971403   1.19889047   1.29627303
 C   4.88812196   2.13513080   3.01706042
 H   4.37439268   3.11009274   3.04595720
 C   6.41989029   2.37748538   2.92956330
 C   4.56424026   1.36186066   4.29411964
 H   5.15351925   1.79039006   5.11134352
 H   4.88140567   0.32291004   4.17243117
 O   6.95031178   2.98342953   3.85963684
 C   3.08373201   1.42344228   4.63865516
 H   2.82930625   2.46076901   4.88526372
 H   2.48396062   1.17422462   3.75528651
 C   2.71615441   0.53314040   5.81108665
 H   3.35050764   0.78567181   6.66513024
 H   2.92120305  -0.51255175   5.56127857
 C   1.26960668   0.66639307   6.22926195
 H   1.04995567   1.71822371   6.42569252
 H   0.61753541   0.34616341   5.41370069
 N   0.95192793  -0.14174400   7.43133634
 H  -0.03221402  -0.07634856   7.69199132
 H   1.50426814   0.16300419   8.23211656
 H   1.16357825  -1.12592451   7.27357535
 O   6.95865453   1.93816802   1.88430502
