21
conf-669
 N  -6.43052442   0.52662505  -4.34403539
 H  -6.66111424   0.27976586  -5.30651809
 H  -7.11908083   1.17608382  -3.97294137
 H  -6.45012992  -0.33535597  -3.79191517
 C  -5.05677758   1.05954597  -4.23839248
 H  -4.80559004   1.56224109  -5.17666695
 C  -4.13674186  -0.14331777  -4.03181716
 C  -4.95030700   2.07858635  -3.08328501
 H  -5.77517309   2.77924985  -3.26902146
 O  -4.58293189  -1.22468269  -3.67229964
 C  -3.66006273   2.89715513  -3.05107381
 H  -2.83934619   2.25277030  -2.74089644
 H  -3.77678935   3.63063726  -2.24531091
 C  -5.15782971   1.40646712  -1.72799236
 H  -4.28709830   0.80152082  -1.48157789
 H  -5.29065591   2.15529325  -0.94537635
 H  -6.03188990   0.75359351  -1.73486193
 C  -3.31000348   3.63648463  -4.33183900
 H  -2.41456944   4.24427574  -4.18683833
 H  -3.10818162   2.95000614  -5.15900303
 H  -4.11834151   4.30623281  -4.64085417
 N  -2.80944824   0.06711733  -4.25749774
 H  -2.49114440   1.02099050  -4.24243564
 C  -1.83519108  -0.91056241  -3.81321602
 H  -2.27704354  -1.89612101  -3.97562133
 C  -1.55614593  -0.72971179  -2.31606075
 C  -0.51706657  -0.80162506  -4.60166448
 H   0.23531316  -1.41609157  -4.09716375
 H  -0.17245807   0.23307553  -4.54965481
 O  -1.67173034   0.34635675  -1.74481960
 C  -0.66218639  -1.24574460  -6.03580800
 C  -0.39899288  -2.56681038  -6.39761104
 H  -0.05503339  -3.27132819  -5.64757787
 C  -1.08514926  -0.35509868  -7.02482217
 H  -1.29173465   0.67866098  -6.76145921
 C  -0.56385840  -2.99253681  -7.71288919
 H  -0.35408088  -4.02520544  -7.97002773
 C  -1.25245625  -0.77742199  -8.34212999
 H  -1.58518420  -0.06848600  -9.09240133
 C  -0.99393622  -2.09911435  -8.68930208
 H  -1.12385908  -2.43011277  -9.71379442
 N  -1.13975337  -1.86185784  -1.67125228
 H  -0.80236282  -2.60155033  -2.26714986
 C  -0.39578977  -1.74079409  -0.42477971
 H  -0.77874739  -0.86209058   0.09630392
 C   1.08006982  -1.53258033  -0.79291353
 C  -0.59416337  -2.97908641   0.47154172
 H  -0.27610975  -3.84237877  -0.11997900
 O   1.58928480  -2.09817608  -1.75202553
 C   0.24194726  -2.92959511   1.75078060
 H   0.01273119  -2.02535588   2.32630996
 H   0.00614061  -3.79292418   2.37719933
 H   1.31662589  -2.95067500   1.55146704
 C  -2.06814304  -3.13787406   0.84666495
 H  -2.38308646  -2.29197616   1.46347660
 H  -2.71685673  -3.18990385  -0.02779976
 H  -2.20667357  -4.05112552   1.42988917
 N   1.78994510  -0.72189944   0.02684632
 H   1.43166678  -0.41724157   0.91878306
 C   3.22614086  -0.63992081  -0.08394401
 H   3.63151096  -1.63456791  -0.29589533
 C   3.73575932  -0.17862048   1.28372804
 C   3.68889033   0.27673730  -1.21921205
 H   4.78171349   0.27347631  -1.24392208
 H   3.34128036  -0.16006696  -2.15318240
 O   2.97969803   0.12528896   2.18917886
 C   3.19326246   1.70980055  -1.07381201
 H   3.43443200   2.08968723  -0.07642714
 H   2.11138654   1.76718514  -1.17504459
 C   3.84811821   2.64099917  -2.08945271
 N   3.19112307   3.81980457  -2.28846945
 H   2.33543716   4.04713069  -1.81724623
 H   3.59320051   4.47698439  -2.93292248
 O   4.89416208   2.38058082  -2.65495725
 N   5.07771694  -0.13562371   1.39320374
 H   5.71003854  -0.18313809   0.60593705
 C   5.73866526   0.39621169   2.55293176
 H   5.26027178   1.33695885   2.86418527
 C   7.19137240   0.67931351   2.07248785
 C   5.71578842  -0.57193019   3.73699995
 H   6.34194232  -1.43943020   3.50509905
 H   4.69120150  -0.93508950   3.83154477
 O   7.97727496   1.15494383   2.89986441
 C   6.15245938   0.07963292   5.04254367
 H   7.14327796   0.52484018   4.93755755
 H   5.46379800   0.90354846   5.25974234
 C   6.13569250  -0.89926532   6.20078594
 H   6.84163719  -1.71036371   6.00174766
 H   5.14443376  -1.35178959   6.28804759
 C   6.49335115  -0.24788157   7.51866637
 H   7.48222554   0.20903494   7.43430381
 H   5.78340638   0.55726104   7.72251480
 N   6.48665000  -1.21185245   8.64704154
 H   6.72682778  -0.77102484   9.53554262
 H   7.15502605  -1.96478707   8.48698035
 H   5.56766068  -1.63971369   8.75501454
 O   7.41535187   0.40614331   0.87283271
