21
conf-370
 N  -5.46182906  -1.08235511  -5.36031683
 H  -5.14842855  -1.43947920  -6.26396310
 H  -6.37081532  -0.63852324  -5.46272552
 H  -5.55093943  -1.87772135  -4.72310656
 C  -4.46616721  -0.16553030  -4.76705458
 H  -3.99108122   0.39755826  -5.57497217
 C  -3.41792118  -1.02535055  -4.06519178
 C  -5.13563909   0.83995027  -3.80475350
 H  -5.85882829   1.38103982  -4.42898081
 O  -3.72297859  -2.08289437  -3.52792273
 C  -4.16073942   1.86618995  -3.22490911
 H  -3.39180538   1.34158834  -2.65653383
 H  -4.71770865   2.47031227  -2.49922109
 C  -5.89637645   0.14747689  -2.67764077
 H  -5.20040238  -0.37495695  -2.02119714
 H  -6.45519600   0.87514228  -2.08725481
 H  -6.59799537  -0.58716234  -3.06998011
 C  -3.52535824   2.79791213  -4.24388758
 H  -2.85311635   3.50414046  -3.75086579
 H  -2.93591757   2.25081185  -4.98903028
 H  -4.28317337   3.37533693  -4.78115955
 N  -2.14380095  -0.55141529  -4.08328575
 H  -1.99322367   0.41303182  -4.32086792
 C  -1.12189452  -1.16012460  -3.26020134
 H  -1.41898621  -2.19631306  -3.09979176
 C  -1.04140731  -0.46511583  -1.90693309
 C   0.25385569  -1.13223846  -3.95713433
 H   0.23558774  -1.87230848  -4.76185166
 H   1.00543614  -1.44255076  -3.22529410
 O  -1.28624365   0.72064707  -1.75192752
 C   0.60389754   0.22242290  -4.50940738
 C   0.24845026   0.58033299  -5.80915018
 H  -0.28298211  -0.13518830  -6.42927879
 C   1.28194699   1.15990944  -3.72632133
 H   1.58071081   0.89396079  -2.71959546
 C   0.54540424   1.84642366  -6.31222366
 H   0.25506896   2.09840083  -7.32536344
 C   1.58031894   2.42725139  -4.22389301
 H   2.11020793   3.13849305  -3.60104575
 C   1.21183110   2.77593991  -5.51940798
 H   1.44358029   3.75997966  -5.90968277
 N  -0.62611885  -1.26007467  -0.87107615
 H  -0.18439782  -2.12249919  -1.14564628
 C   0.00582992  -0.60394012   0.27713977
 H  -0.61214462   0.25565440   0.53787197
 C   1.37353948  -0.12595109  -0.18979036
 C   0.12344817  -1.55656516   1.47443968
 H   0.68340621  -2.42684163   1.12138065
 O   2.17596023  -0.90403154  -0.69514594
 C   0.88897319  -0.92966872   2.64093037
 H   0.33526236  -0.06912787   3.02764366
 H   0.98503900  -1.65574901   3.45094824
 H   1.89571151  -0.59205734   2.36949201
 C  -1.25301560  -2.00400536   1.95853904
 H  -1.81605794  -1.13976990   2.31977414
 H  -1.82991048  -2.48652393   1.16891765
 H  -1.14771640  -2.70800852   2.78664120
 N   1.61482050   1.20232622  -0.09088017
 H   1.02832363   1.73095098   0.53172361
 C   2.97419505   1.69293856  -0.28503956
 H   3.33709045   1.25312546  -1.21693638
 C   3.85789850   1.24143097   0.88206479
 C   2.97903448   3.21743962  -0.36246367
 H   2.16578001   3.54002032  -1.01322169
 H   2.77103229   3.59808317   0.63718016
 O   3.45515880   1.31574721   2.05107558
 C   4.29652612   3.77055863  -0.89866497
 H   4.50638925   3.32799525  -1.87983850
 H   5.13800267   3.51728973  -0.25452426
 C   4.23075266   5.27321841  -1.13067261
 N   5.41915332   5.92952756  -1.00034373
 H   6.26499641   5.46732619  -0.72528908
 H   5.42045127   6.92211384  -1.15494421
 O   3.20580722   5.84330842  -1.45882459
 N   5.09808621   0.80314319   0.52628766
 H   5.51736952   1.10883549  -0.34387394
 C   6.12194651   0.62219546   1.51950130
 H   5.84109554   1.17013244   2.42967049
 C   7.41361848   1.24395321   0.91530355
 C   6.37306887  -0.84001608   1.89419848
 H   7.13437575  -0.83844302   2.67599746
 H   6.78267338  -1.39306789   1.04465844
 O   8.40401402   1.27561567   1.64451409
 C   5.09547343  -1.50585389   2.39201814
 H   4.58015500  -0.79459168   3.03638584
 H   4.42547036  -1.68777119   1.54647084
 C   5.32718110  -2.82072393   3.11820875
 H   5.96482581  -2.66150432   3.99313927
 H   5.86220570  -3.51072381   2.45762202
 C   4.02967833  -3.48383346   3.54937077
 H   3.37427432  -3.56916947   2.67243750
 H   4.21518726  -4.49575553   3.91354756
 N   3.30876506  -2.70971745   4.59187663
 H   2.38441789  -3.09027343   4.78290296
 H   3.17849216  -1.74037475   4.29516803
 H   3.82913458  -2.68711274   5.47003435
 O   7.29359420   1.65424016  -0.26464626
