102
104
N          4.11415        6.82578        5.93252
H          3.60483        6.19798        6.55949
H          4.98963        7.11260        6.42679
H          4.38422        6.29227        5.06759
C          3.28358        8.00409        5.52420
H          2.43583        7.65622        4.93229
H          2.93256        8.50692        6.42891
C          4.21954        8.93573        4.74516
O          5.33694        9.17058        5.20173
N          3.73219        9.41202        3.58531
H          2.79796        9.12049        3.28241
C          4.56085       10.18851        2.67243
H          5.56495       10.23274        3.10025
H          4.16940       11.20284        2.55412
C          4.55932        9.54008        1.28357
O          3.81540        9.95948        0.38716
N          5.37082        8.47445        1.10142
H          6.00132        8.15854        1.84172
C          5.45167        7.83971       -0.20589
H          5.83003        8.54960       -0.95063
H          6.15947        7.01156       -0.12957
C          4.10313        7.26566       -0.66782
O          3.54628        6.32061       -0.08030
N          3.55290        7.83360       -1.75794
H          3.95040        8.70583       -2.08065
C          2.22841        7.44614       -2.22663
H          1.99164        8.04157       -3.11272
H          2.22122        6.39323       -2.51564
C          1.12113        7.61894       -1.17346
O          0.15944        6.84975       -1.16172
N          1.27030        8.64752       -0.30455
H          2.15071        9.15841       -0.25475
C          0.36039        8.80380        0.82361
H          0.47427        9.80968        1.22867
H         -0.66688        8.67242        0.47173
C          0.67712        7.79935        1.94291
O          1.25418        8.14056        2.98588
N          0.31187        6.52625        1.68902
H         -0.14157        6.34095        0.79566
C          0.60248        5.43574        2.60518
H          1.50938        5.69758        3.16141
H         -0.20768        5.28500        3.32549
C          0.82728        4.08604        1.92643
O          0.43211        3.05812        2.48300
N          1.50427        4.07733        0.75343
H          1.87601        4.94294        0.37539
C          1.68063        2.85382       -0.02964
H          0.73160        2.30550       -0.03389
H          1.92917        3.13293       -1.05343
C          2.79381        1.90877        0.46271
O          3.69484        1.52936       -0.28671
N          2.68133        1.51173        1.75338
H          1.87491        1.83593        2.28698
C          3.63800        0.58990        2.34389
H          3.72068       -0.31258        1.72758
H          3.27358        0.31067        3.33387
C          5.01120        1.25667        2.52203
O          5.25591        2.00317        3.46318
N          5.93209        0.93794        1.55500
H          5.50780        0.65286        0.67502
C          7.14795        1.73461        1.44063
H          7.64010        1.45580        0.50282
H          6.92447        2.80343        1.38899
C          8.17643        1.52929        2.55616
O          9.01938        2.40389        2.78322
N          8.15556        0.33658        3.18922
H          7.40255       -0.30109        2.96841
C          9.22987       -0.11483        4.06825
H          9.14451       -1.19575        4.17978
H         10.18931        0.11805        3.59117
C          9.23826        0.46711        5.49620
O          9.06013       -0.24059        6.47742
N          9.55460        1.79668        5.56646
H          9.58367        2.31878        4.69142
C          9.70709        2.44758        6.83890
H         10.72995        2.82942        6.97331
H          9.54300        1.67532        7.60204
C          8.71128        3.58027        7.07427
O          7.66593        3.70461        6.44185
N          9.06325        4.49018        8.04197
H          9.85134        4.27118        8.63933
C          8.05714        5.41345        8.56130
H          7.18194        4.88032        8.94448
H          8.50432        5.97758        9.38577
C          7.52508        6.40336        7.51725
O          6.35330        6.78524        7.57915
N          8.41177        6.82278        6.58556
H          9.32754        6.39169        6.59833
C          8.05429        7.67774        5.46297
H          8.94643        8.20031        5.10973
H          7.33237        8.42964        5.78896
C          7.43326        6.95158        4.26141
O          7.25809        7.55004        3.19537
N          7.07018        5.66496        4.45423
H          7.31981        5.16924        5.30651
C          6.64362        4.84123        3.34679
H          6.49609        3.81865        3.70737
H          7.40165        4.81721        2.55933
C          5.32970        5.30065        2.74931
O          4.41575        5.83344        3.37566
O          5.26949        5.03460        1.45647
H          4.45989        5.44114        1.02834
