62
64
N         -1.86415       -1.44123       -4.61588
H         -2.57303       -2.03223       -5.06309
H         -2.23983       -0.50138       -4.35473
H         -0.89801       -1.28701       -5.29890
C         -1.33440       -2.02783       -3.31995
H         -2.09791       -2.68525       -2.89031
C         -1.18286       -0.79732       -2.39429
C         -0.03150       -2.83051       -3.55776
H         -0.20324       -3.49784       -4.41040
H          0.11987       -3.47986       -2.68711
O         -1.71517        0.28862       -2.72729
C          1.26074       -2.02089       -3.78965
H          1.48844       -1.37829       -2.93371
H          2.09863       -2.72560       -3.84931
C          1.31971       -1.20041       -5.08376
O          2.45413       -0.68277       -5.35886
O          0.28769       -1.07420       -5.84074
N         -0.49043       -0.98457       -1.25594
H          0.06074       -1.82859       -1.11333
C         -0.07626        0.15501       -0.42027
H         -0.41833        1.06122       -0.92446
C          1.45824        0.12087       -0.38890
C         -0.66270        0.06895        1.00688
H         -0.34431        0.95559        1.57077
H         -0.23847       -0.81142        1.50679
O          2.10363       -0.84873       -0.85474
C         -2.20659       -0.01196        1.03595
H         -2.50416       -0.92861        0.51086
C         -2.67942       -0.10118        2.50377
H         -2.40329        0.81234        3.04439
H         -3.76825       -0.20838        2.54803
H         -2.22641       -0.95792        3.01610
C         -2.85657        1.20002        0.33065
H         -2.49230        2.13462        0.77632
H         -2.64364        1.20344       -0.74253
H         -3.94392        1.16791        0.46045
N          2.05814        1.19793        0.16463
H          1.53944        1.92627        0.65328
C          3.51393        1.23919        0.33467
H          3.87885        0.21953        0.48934
C          3.77930        2.08495        1.56714
C          4.25282        1.86400       -0.87987
H          5.32487        1.80850       -0.66461
H          3.97313        2.92247       -0.95527
O          2.92612        2.68954        2.20786
C          3.91302        1.14912       -2.20088
H          4.03646        0.06869       -2.08832
H          2.86207        1.33231       -2.44723
C          4.77729        1.66904       -3.36457
H          5.83148        1.41935       -3.18666
H          4.68228        2.76099       -3.43253
N          4.29252        1.05841       -4.61749
H          3.66395        0.22624       -4.58131
N          5.25679        2.64788       -6.03715
H          5.25410        3.15861       -6.91117
H          5.94883        2.90344       -5.34510
N          3.66268        1.12110       -6.82664
H          3.82143        1.37724       -7.79287
H          2.98123        0.36874       -6.55481
C          4.41157        1.61001       -5.83185
O          5.11982        2.11321        1.82954
H          5.30120        2.68707        2.62498
