150
152
N          3.64133       -5.22613       -0.51604
H          4.13325       -5.98515       -0.98747
H          3.78850       -5.38003        0.52870
H          4.11285       -4.34156       -0.79952
C          2.23042       -5.09626       -1.01087
H          1.94887       -6.03931       -1.48417
C          2.29482       -3.95946       -2.05282
C          1.23969       -4.74101        0.10742
H          0.25685       -4.62986       -0.36581
H          1.48929       -3.75614        0.51130
O          3.31528       -3.26410       -2.11284
C          1.12195       -5.75332        1.25890
H          2.09485       -5.82185        1.75890
C          0.10541       -5.22063        2.27763
H         -0.89815       -5.17645        1.83933
H          0.36483       -4.21166        2.60996
H          0.05542       -5.87213        3.15518
C          0.73443       -7.15326        0.77064
H         -0.21113       -7.12967        0.21620
H          1.49637       -7.59720        0.12024
H          0.60429       -7.83327        1.61703
N          1.20016       -3.77116       -2.79187
H          0.37432       -4.34776       -2.67018
C          0.97705       -2.58099       -3.61902
H          1.70330       -1.82099       -3.31908
C         -0.46165       -2.17287       -3.26830
C          1.11951       -2.89385       -5.12457
H          0.30504       -3.58358       -5.37869
O         -1.35045       -3.02749       -3.31934
C          0.95240       -1.61271       -5.94911
H          1.80123       -0.94266       -5.76766
H          0.02275       -1.08803       -5.70535
H          0.93719       -1.84099       -7.01797
C          2.46207       -3.56383       -5.43145
H          3.29756       -2.92938       -5.11836
H          2.55711       -3.74907       -6.50525
H          2.55822       -4.52456       -4.91927
N         -0.64262       -0.89841       -2.87930
H          0.15546       -0.26274       -2.81842
C         -1.94025       -0.41404       -2.41584
H         -2.70714       -1.03560       -2.88732
C         -2.02299        1.04086       -2.87839
C         -2.08297       -0.50463       -0.86903
H         -1.39611        0.23092       -0.44143
O         -1.01898        1.75139       -2.83284
C         -3.50181       -0.13640       -0.42483
H         -4.23699       -0.84342       -0.82796
H         -3.78686        0.87192       -0.73102
H         -3.56453       -0.17118        0.66572
C         -1.69277       -1.88872       -0.33770
H         -2.27209       -2.68025       -0.82108
H         -0.63096       -2.09452       -0.49499
H         -1.88123       -1.92588        0.73807
N         -3.19478        1.53361       -3.34120
H         -4.05888        1.02795       -3.19995
C         -3.28232        2.94041       -3.74325
H         -2.67780        3.10536       -4.63934
C         -2.67503        3.88716       -2.68151
C         -4.74461        3.25773       -4.05347
H         -5.04146        2.74628       -4.97975
H         -4.85028        4.33875       -4.20673
O         -1.74443        4.64674       -2.94104
O         -5.51513        2.79276       -2.94761
H         -6.43398        3.06646       -3.05776
N         -3.25030        3.80260       -1.46074
H         -4.03996        3.18518       -1.30642
C         -2.61318        4.34051       -0.26956
H         -2.21718        5.33517       -0.48992
C         -1.48252        3.36162        0.07306
C         -3.66180        4.40457        0.86191
H         -3.12564        4.62766        1.79678
O         -1.75362        2.30591        0.67431
C         -4.70686        5.47893        0.60530
H         -4.24963        6.47214        0.58137
H         -5.20990        5.30177       -0.34933
H         -5.45614        5.45516        1.39932
O         -4.33726        3.15707        0.95697
H         -3.64213        2.49854        1.13563
N         -0.25082        3.67734       -0.36737
H         -0.22019        4.46874       -1.00021
C          0.84410        2.70146       -0.53823
H          0.42010        1.82312       -1.03237
C          1.47094        2.17213        0.77129
C          1.92636        3.29480       -1.44386
H          2.84464        2.73543       -1.27079
H          2.13407        4.32384       -1.13048
O          2.68299        2.27786        0.99976
C          1.57407        3.26160       -2.92926
H          2.29883        3.86423       -3.48924
H          0.58527        3.69357       -3.12598
C          1.57719        1.85620       -3.51704
N          1.32304        1.80797       -4.84680
H          0.97402        2.62176       -5.32838
H          1.17586        0.90670       -5.27396
O          1.81245        0.83366       -2.85949
N          0.64438        1.44695        1.54912
H         -0.35091        1.41716        1.31358
C          1.12216        0.62302        2.64825
H          1.90113        1.16734        3.19283
C          1.73988       -0.63967        2.02426
C         -0.04729        0.27414        3.58654
H          0.35724       -0.38935        4.36733
O          1.15491       -1.74585        2.03666
C         -0.65321        1.50869        4.23571
H          0.09626        2.05485        4.81584
H         -1.06572        2.17645        3.47531
H         -1.46409        1.20786        4.90249
O         -1.07688       -0.38404        2.85954
H         -0.66034       -1.19163        2.51350
N          2.92501       -0.46018        1.42188
H          3.25023        0.50839        1.36324
C          3.48210       -1.41814        0.45784
H          2.63727       -1.89863       -0.04710
C          4.27057       -2.52947        1.18248
C          4.32831       -0.67980       -0.56987
H          4.76609       -1.39471       -1.26384
H          3.69957        0.01564       -1.13115
H          5.13905       -0.13184       -0.08212
O          5.41244       -2.85824        0.87103
N          3.58798       -3.15698        2.18355
H          2.64075       -2.83437        2.36870
C          4.29991       -3.85938        3.23368
H          5.05123       -3.18477        3.66345
C          5.03731       -5.08248        2.69393
C          3.33010       -4.30933        4.34296
H          2.69250       -5.10919        3.95084
H          3.93520       -4.75221        5.14303
O          4.54440       -5.84984        1.84157
C          2.44336       -3.19783        4.93903
H          1.71992       -2.88228        4.17737
C          1.64146       -3.76863        6.11444
H          2.30526       -4.07439        6.93096
H          1.05724       -4.64327        5.81042
H          0.94611       -3.02284        6.51063
C          3.24677       -1.96179        5.35964
H          4.02465       -2.22214        6.08680
H          2.59185       -1.22267        5.83141
H          3.72948       -1.47494        4.50602
N          6.21260       -5.34299        3.26958
H          6.59884       -4.72780        3.97701
C          7.02564       -6.50221        2.93730
H          6.38531       -7.38979        2.91037
C          8.03289       -6.65889        4.06669
C          7.73309       -6.34596        1.58120
H          8.32375       -7.23644        1.35808
H          6.98069       -6.20798        0.80367
H          8.38933       -5.47211        1.59050
O          8.19900       -5.83911        4.94461
O          8.72951       -7.79793        3.95388
H          9.37220       -7.82097        4.68399
