21
conf-367
 N  -9.61115521  -5.59177328  -8.28416954
 H  -8.85658622  -6.20575314  -8.59615484
 H  -10.24218529  -5.42854943  -9.06613208
 H  -10.12472763  -6.07658083  -7.54446431
 C  -9.09338197  -4.31888515  -7.74040209
 H  -8.39175979  -3.89602636  -8.46114633
 C  -8.38299275  -4.59553572  -6.42270260
 C  -10.24563433  -3.34336878  -7.50441465
 H  -10.93314165  -3.83481895  -6.80890357
 H  -10.77993129  -3.21785365  -8.45261701
 O  -8.85322276  -5.37342132  -5.59877780
 C  -9.88511167  -1.96524666  -6.95111607
 H  -9.35439882  -2.10212408  -6.00175506
 C  -8.98905823  -1.18025500  -7.90174403
 H  -9.50465643  -1.00791945  -8.85047331
 H  -8.05076727  -1.69573853  -8.11608985
 H  -8.73108122  -0.20819564  -7.47234053
 C  -11.16664445  -1.18652181  -6.66401960
 H  -11.73588937  -1.04203776  -7.58494838
 H  -11.79827899  -1.71972797  -5.95059082
 H  -10.94367055  -0.20280546  -6.24512534
 N  -7.22966816  -3.90338013  -6.22225739
 H  -7.00919760  -3.12696863  -6.82743673
 C  -6.65674273  -3.74215777  -4.90098574
 H  -7.39803150  -4.07053949  -4.16600083
 C  -6.34968187  -2.25664852  -4.72920057
 C  -5.37976286  -4.58675342  -4.69838874
 H  -5.03728862  -4.35807838  -3.68456022
 O  -6.23403315  -1.50459860  -5.68419697
 C  -5.70297244  -6.07532484  -4.78786076
 H  -5.98090524  -6.34076654  -5.80767785
 H  -6.53267286  -6.34537360  -4.12989464
 H  -4.82923915  -6.66875552  -4.51160090
 C  -4.27320237  -4.19301046  -5.67268005
 H  -4.56236295  -4.45391205  -6.69289385
 H  -3.34965977  -4.72373796  -5.43356686
 H  -4.08209910  -3.11610468  -5.63434907
 N  -6.18289767  -1.84108763  -3.43441362
 H  -6.08324600  -2.57545642  -2.75269928
 C  -5.33267398  -0.68403297  -3.15796879
 H  -5.48575568   0.03064100  -3.96785434
 C  -3.88661488  -1.17175345  -3.15978070
 C  -5.69706212  -0.02210568  -1.81623714
 H  -5.61686793  -0.80155661  -1.05490093
 O  -3.56153489  -2.20049399  -2.58251162
 C  -4.74254599   1.11871889  -1.45499556
 H  -4.78432882   1.90252504  -2.22088409
 H  -3.70150538   0.79896042  -1.35576298
 H  -5.04377736   1.56562300  -0.50521849
 C  -7.12797066   0.51109682  -1.84550797
 H  -7.20789248   1.30813001  -2.58907934
 H  -7.85421652  -0.26447234  -2.09060044
 H  -7.38988457   0.92997834  -0.87132242
 N  -2.98965453  -0.40693062  -3.85495360
 H  -3.24297999   0.56613257  -3.95716913
 C  -1.56331856  -0.63678950  -3.62280663
 H  -1.41769441  -1.71761699  -3.60481778
 C  -1.16006416  -0.00906557  -2.29694961
 C  -0.77624046  -0.02457600  -4.77144384
 H   0.29735225  -0.16254486  -4.61296779
 H  -0.97406214   1.05504033  -4.79430275
 O  -1.33216226   1.19375845  -2.08416891
 O  -1.08894349  -0.64984660  -6.00114190
 H  -2.04888439  -0.65920164  -6.05890695
 N  -0.67793588  -0.88253918  -1.36896486
 H  -0.28597590  -1.74324205  -1.71946248
 C  -0.09238842  -0.35741962  -0.14481399
 H  -0.64255023   0.55291058   0.10096977
 C   1.37078209  -0.05809007  -0.40065865
 C  -0.27396859  -1.35849413   0.99820000
 H   0.26049054  -2.28030233   0.72826093
 O   2.16154639  -0.95921343  -0.67816951
 C   0.22761707  -0.82185620   2.32539202
 H   1.28923633  -0.56446136   2.28956852
 H  -0.33972315   0.07501468   2.58448309
 H   0.07218822  -1.56832860   3.10385848
 O  -1.66109821  -1.62461196   1.17025029
 H  -2.02163412  -1.76845929   0.28799679
 N   1.72534143   1.24620906  -0.34672497
 H   1.07261437   1.88429589   0.07412449
 C   3.13756622   1.61461198  -0.31802050
 H   3.60944017   1.12558586  -1.17254497
 C   3.76549118   1.09109542   0.96998828
 C   3.27576865   3.12981282  -0.41437527
 H   2.80006476   3.58685991   0.45191423
 H   2.72158056   3.45907339  -1.29236399
 O   3.25825817   1.31659823   2.06718928
 C   4.72261846   3.60253973  -0.51124046
 H   5.23113177   3.13467921  -1.35900424
 H   5.27459105   3.30998500   0.38761975
 C   4.82312702   5.12135344  -0.63325944
 N   6.04382560   5.58268274  -1.03550843
 H   6.82551231   4.97428071  -1.19451521
 H   6.17351236   6.57755791  -1.08255764
 O   3.90307013   5.87420365  -0.37208933
 N   4.90447601   0.37634969   0.81645671
 H   5.23611091   0.11243772  -0.09649252
 C   5.55907582  -0.25274921   1.93545507
 H   5.14710029   0.19664287   2.83408057
 C   7.05587172   0.00570343   1.82614752
 C   5.29245156  -1.77014598   1.97253098
 H   5.86562330  -2.17933655   2.81712417
 O   7.65653129  -0.15727194   0.76302616
 C   3.81792761  -2.07473339   2.14844932
 H   3.38374814  -1.49247984   2.96492092
 H   3.29634035  -1.82922085   1.22244484
 H   3.68066920  -3.13738063   2.34469876
 O   5.68109000  -2.39805795   0.75684141
 H   6.61274858  -2.20508279   0.59567178
 N   7.68645533   0.38511475   2.95510280
 H   7.22643045   0.42757252   3.85423367
 C   9.12031645   0.55818311   2.99674968
 H   9.59463166  -0.26744670   2.45868307
 C   9.50675685   0.50667583   4.47856050
 C   9.56476822   1.86835422   2.35006766
 H   10.65024733   1.96683435   2.40597008
 H   9.25772822   1.87879908   1.30546842
 H   9.10737589   2.71963827   2.86040851
 O   8.67571893   0.57913147   5.36663733
 N   10.83292581   0.42666402   4.72536721
 H   11.49065005   0.27021024   3.97909284
 C   11.33277707   0.34352160   6.08795031
 H   10.74820901   1.04739451   6.68268518
 C   12.80278922   0.73337526   6.02413245
 C   11.16837411  -1.06876324   6.65445294
 H   10.11775682  -1.34182761   6.54244648
 H   11.74915628  -1.74996680   6.02940502
 O   13.56640839   0.16251842   5.25324722
 C   11.58624053  -1.24096071   8.11601028
 H   12.62250770  -0.90202277   8.21998409
 C   10.69951274  -0.42640348   9.05189259
 H   9.66485103  -0.77432808   8.97987875
 H   10.71374481   0.64028918   8.81426041
 H   11.02335338  -0.54119810   10.08896129
 C   11.54133578  -2.72157707   8.48869365
 H   10.52862983  -3.11252363   8.36377856
 H   11.83949361  -2.87477474   9.52819115
 H   12.21337652  -3.30435706   7.85535275
 N   13.20748857   1.70676562   6.86980050
 H   12.54470061   2.20634514   7.44079227
 C   14.59805367   2.12288824   6.89352393
 H   15.22095189   1.22874374   6.83302910
 C   14.92397605   2.81185449   8.20156435
 C   14.95086758   3.03407601   5.71172133
 H   16.00725290   3.29869800   5.76031476
 H   14.75531433   2.50349222   4.78120486
 H   14.35516114   3.94792072   5.73346618
 O   16.01094600   2.82080969   8.71686077
 O   13.86191808   3.47647051   8.71325037
 H   14.16255105   3.89661710   9.52841153
