21
conf-239
 N  -10.25782008  -5.93713292  -6.15079440
 H  -10.05678597  -5.84258371  -7.14806173
 H  -11.25443837  -5.79048914  -6.00477427
 H  -10.02243619  -6.89242025  -5.87125214
 C  -9.45524327  -4.99939888  -5.33730326
 H  -9.54666062  -4.00146549  -5.76850887
 C  -7.99846136  -5.44188298  -5.36356665
 C  -9.96430129  -4.99100131  -3.89664018
 H  -9.88354529  -6.01883183  -3.52966507
 H  -11.03030229  -4.73903890  -3.92022005
 O  -7.69342823  -6.62593087  -5.24620551
 C  -9.25850087  -4.05886170  -2.91210310
 H  -8.19662839  -4.33204443  -2.87628304
 C  -9.36794385  -2.59485985  -3.32274879
 H  -10.41804167  -2.29425100  -3.37741175
 H  -8.90585467  -2.39721987  -4.29116037
 H  -8.86804221  -1.95283450  -2.59219104
 C  -9.84879340  -4.26654200  -1.51942679
 H  -10.91121687  -4.01347487  -1.51926724
 H  -9.74336432  -5.30513398  -1.19947540
 H  -9.35034462  -3.63533767  -0.78085265
 N  -7.08803249  -4.44365851  -5.49219713
 H  -7.39431579  -3.48586518  -5.41192903
 C  -5.68587553  -4.61004804  -5.13995913
 H  -5.57017208  -5.58058205  -4.64768340
 C  -5.37510007  -3.46972828  -4.16744822
 C  -4.79321415  -4.60185778  -6.39677965
 H  -5.03734709  -3.69077502  -6.94824791
 O  -5.95889605  -2.40021179  -4.24684474
 C  -3.29621804  -4.61288869  -6.09106908
 H  -3.04015014  -5.50558094  -5.50840944
 H  -2.94497780  -3.73258140  -5.54666083
 H  -2.73333192  -4.65977321  -7.02625564
 C  -5.13070026  -5.81777411  -7.26115874
 H  -4.82810350  -6.72870070  -6.73561373
 H  -4.59238953  -5.77275902  -8.20971054
 H  -6.19675831  -5.89160049  -7.46819946
 N  -4.43542180  -3.72985079  -3.20815255
 H  -3.79665884  -4.48463517  -3.41173739
 C  -3.82889142  -2.60604337  -2.49897361
 H  -4.58903594  -1.82986113  -2.44011824
 C  -2.63132386  -2.10539418  -3.31102595
 C  -3.35332108  -2.95331137  -1.07847867
 H  -2.55360578  -3.69097065  -1.20382347
 O  -1.70834061  -2.91066067  -3.60037899
 C  -2.78831141  -1.70790363  -0.38174736
 H  -3.59241846  -0.97896405  -0.24558216
 H  -1.97481469  -1.20847944  -0.92692120
 H  -2.40464459  -1.96889615   0.60872591
 C  -4.46865009  -3.53977212  -0.22013899
 H  -5.27265526  -2.80934090  -0.10017208
 H  -4.88964142  -4.44948249  -0.65000643
 H  -4.08517992  -3.78194239   0.77369326
 N  -2.68998168  -0.77467510  -3.69872288
 H  -3.23380286  -0.20812062  -3.06171226
 C  -1.45064093  -0.12980756  -4.14249359
 H  -0.98263493  -0.80590168  -4.86179652
 C  -0.53640390   0.05165371  -2.92201944
 C  -1.77120505   1.18964521  -4.80829318
 H  -0.85188182   1.68863105  -5.10616885
 H  -2.28426181   1.83271421  -4.07729311
 O  -0.86762458   0.76411705  -1.93514187
 O  -2.52854463   0.98529355  -5.98457777
 H  -3.26203732   0.41421833  -5.74089179
 N   0.57888543  -0.71399617  -2.97427217
 H   0.75563809  -1.25916289  -3.79936360
 C   1.34077053  -1.03918155  -1.79260636
 H   0.75327909  -0.69081500  -0.93860585
 C   2.60155475  -0.18524706  -1.83714072
 C   1.53189180  -2.55377645  -1.68378503
 H   2.49087820  -2.76573868  -1.21161149
 O   3.71209270  -0.63132285  -2.12058889
 C   0.38231714  -3.12895895  -0.87411856
 H   0.33607997  -2.66365170   0.11025456
 H  -0.55845290  -2.94004958  -1.39621096
 H   0.49778314  -4.20685761  -0.74837001
 O   1.58026609  -3.15973838  -2.97171349
 H   0.68626469  -3.43826426  -3.20793024
 N   2.37995002   1.12569724  -1.59415017
 H   1.42632945   1.41414558  -1.40495975
 C   3.38873950   2.14077184  -1.85939243
 H   3.95087209   1.79232526  -2.72713103
 C   4.35171505   2.22981752  -0.67260926
 C   2.74085735   3.49298991  -2.14238766
 H   3.52235009   4.21412467  -2.38347220
 H   2.28099978   3.85704199  -1.22387814
 O   4.35425828   3.17087789   0.12500335
 C   1.68687750   3.45964539  -3.24363908
 H   1.28269378   4.46519473  -3.38871493
 H   0.83886535   2.82039934  -2.96262364
 C   2.15541814   2.98401479  -4.60869566
 N   3.45092986   3.24886709  -4.93479420
 H   4.11287875   3.53624898  -4.24278420
 H   3.78022697   2.88105202  -5.81025152
 O   1.38266390   2.46630919  -5.39650238
 N   5.21470901   1.20178566  -0.54165727
 H   5.14511796   0.40072519  -1.16304121
 C   6.11471470   1.12496942   0.59267306
 H   5.60582782   1.59925095   1.43768758
 C   7.39412024   1.90613785   0.29356120
 C   6.44229587  -0.32808513   0.93677271
 H   7.15930335  -0.30986562   1.76323678
 O   8.50659601   1.36339251   0.23794059
 C   5.22251098  -1.13343661   1.32327658
 H   4.70934924  -0.68765861   2.17880980
 H   4.52542023  -1.18712395   0.48482572
 H   5.52248690  -2.15001129   1.57893799
 O   7.02867227  -0.96950211  -0.18778346
 H   7.88453784  -0.54382093  -0.31245105
 N   7.24112509   3.21958286   0.07589534
 H   6.32144593   3.63522175   0.18020642
 C   8.37536652   4.06113628  -0.25834600
 H   9.07712151   3.42299695  -0.80463865
 C   9.04795827   4.52928088   1.03889009
 C   7.93064900   5.23421613  -1.11249861
 H   8.78945058   5.85112568  -1.38355603
 H   7.45480329   4.86444172  -2.02250296
 H   7.22390563   5.85918325  -0.56296706
 O   8.96280441   5.67423503   1.46106482
 N   9.73113612   3.56664956   1.70305464
 H   9.70759567   2.60688640   1.37912168
 C   10.39818044   3.87482509   2.95599508
 H   10.78868907   4.89297731   2.87078389
 C   11.51609813   2.86421808   3.13588210
 C   9.43613693   3.79775221   4.13707502
 H   8.65503401   4.54046846   3.97472077
 H   8.96290819   2.81400474   4.12079078
 O   11.27241836   1.68105892   3.32331643
 C   10.07674481   4.01236016   5.51260468
 H   10.82521298   3.22346980   5.65469192
 C   10.76199053   5.37099271   5.62102968
 H   10.04453347   6.17213702   5.41676550
 H   11.59775305   5.47566934   4.92733167
 H   11.15382555   5.51978955   6.63027817
 C   9.00909953   3.85626166   6.59335282
 H   8.24022328   4.62344907   6.47711127
 H   9.44394370   3.95577489   7.58998969
 H   8.53028357   2.87704939   6.52956440
 N   12.77952012   3.34603628   3.04167695
 H   12.93146399   4.33865203   3.01380750
 C   13.91970057   2.48518074   3.28556412
 H   13.73270468   1.52905856   2.79229058
 C   14.09744256   2.16077082   4.75835533
 C   15.18418483   3.13448657   2.72904171
 H   16.04725349   2.49088967   2.90412621
 H   15.07673159   3.29357774   1.65468832
 H   15.36259993   4.09489583   3.21331076
 O   14.59941789   1.14682799   5.17244842
 O   13.68739451   3.15863876   5.57983401
 H   13.89198604   2.85870428   6.47242483
