21
conf-126
 N  -9.43137493  -7.19348396  -3.32802040
 H  -9.01666528  -8.10661905  -3.52005098
 H  -10.44810772  -7.28295524  -3.32982300
 H  -9.13338792  -6.90982358  -2.39168469
 C  -8.97254415  -6.17933858  -4.29412343
 H  -9.09617769  -6.58008860  -5.30370050
 C  -7.49228084  -5.90768292  -4.06886259
 C  -9.75992596  -4.87809643  -4.16728450
 H  -9.25618384  -4.10199075  -4.74391107
 H  -9.70732348  -4.56409840  -3.11868399
 O  -6.94179240  -6.11870069  -3.00179372
 C  -11.22399129  -4.93443813  -4.60825196
 H  -11.72812643  -5.72698865  -4.04134647
 C  -11.90099088  -3.61053983  -4.26705386
 H  -11.41619421  -2.79162825  -4.80434395
 H  -11.84053396  -3.39650466  -3.19772083
 H  -12.95670454  -3.61944067  -4.54796794
 C  -11.37084625  -5.23969501  -6.09433587
 H  -10.89259040  -4.45542330  -6.68829056
 H  -10.92039650  -6.19483204  -6.37251461
 H  -12.42554198  -5.27645332  -6.37878937
 N  -6.82575173  -5.40065007  -5.15387564
 H  -7.40443457  -4.98495964  -5.86343704
 C  -5.54486466  -4.72416852  -4.95134913
 H  -4.91606617  -5.38748058  -4.35226452
 C  -5.79797934  -3.43558626  -4.16352225
 C  -4.84905845  -4.45421859  -6.29789490
 H  -5.57437330  -3.91803966  -6.91573444
 O  -6.77421366  -2.72314689  -4.37617780
 C  -3.59887786  -3.58594548  -6.15742615
 H  -2.86430405  -4.06804707  -5.49929695
 H  -3.82094741  -2.59183600  -5.75713692
 H  -3.13399828  -3.45354824  -7.13709473
 C  -4.47524754  -5.77231081  -6.97458584
 H  -3.72334365  -6.28915650  -6.37282233
 H  -4.04638346  -5.58411134  -7.96154448
 H  -5.33373035  -6.43475548  -7.09357408
 N  -4.86369350  -3.15430446  -3.22010894
 H  -3.97495498  -3.63014499  -3.24065614
 C  -4.82622235  -1.85499762  -2.57885190
 H  -5.55145312  -1.21341517  -3.08361077
 C  -3.40303908  -1.34094911  -2.77751558
 C  -5.22298513  -1.93454182  -1.08881626
 H  -4.47349034  -2.56884871  -0.59872845
 O  -2.45673670  -2.12563884  -2.81236382
 C  -5.23423868  -0.56272688  -0.42366307
 H  -5.92917031   0.10111188  -0.94794322
 H  -4.24705386  -0.09609491  -0.40691945
 H  -5.57526445  -0.65148180   0.61262704
 C  -6.59748725  -2.58997087  -0.94032181
 H  -7.34987945  -1.99861388  -1.46949141
 H  -6.61477927  -3.60114625  -1.34464788
 H  -6.87972297  -2.63931494   0.11266361
 N  -3.23463826  -0.01193645  -2.86781312
 H  -4.01899997   0.62145727  -2.82548681
 C  -1.92343751   0.58524387  -3.04984256
 H  -1.34114563  -0.12846522  -3.64006298
 C  -1.19907124   0.77943005  -1.70650516
 C  -2.08687654   1.88038418  -3.81771367
 H  -2.32861713   1.63294720  -4.85738263
 H  -1.14976522   2.44671493  -3.78593928
 O  -0.82528614   1.87982794  -1.29981798
 O  -3.15976761   2.60385878  -3.21805194
 H  -3.08063440   3.53182520  -3.45737571
 N  -0.99475533  -0.34544579  -0.99188195
 H  -1.21112794  -1.25570538  -1.38316049
 C  -0.36660341  -0.30301320   0.31423725
 H  -0.71899415   0.60134804   0.81560645
 C   1.15362733  -0.22855214   0.16813248
 C  -0.76347664  -1.53189748   1.12971075
 H  -0.19552545  -1.50899567   2.06527440
 O   1.89110124  -1.19185328   0.40463005
 C  -2.24373184  -1.57409366   1.42890971
 H  -2.54813843  -0.70170825   2.01368761
 H  -2.81672997  -1.58739305   0.49731435
 H  -2.48567018  -2.47640741   1.99005454
 O  -0.44420679  -2.71070625   0.40406433
 H   0.51844521  -2.72193910   0.34460544
 N   1.64648165   0.95065460  -0.25006959
 H   1.01499288   1.72357751  -0.42248941
 C   3.07538102   1.15542257  -0.36287214
 H   3.51454302   0.23599660  -0.75528728
 C   3.66592113   1.45140823   1.01785114
 C   3.38276745   2.31891658  -1.30460744
 H   4.46565430   2.37598521  -1.43569216
 H   3.05680465   3.24779932  -0.83501999
 O   3.23387486   2.34353625   1.73526523
 C   2.72582141   2.14760350  -2.67171316
 H   2.96250177   3.00491470  -3.30673622
 H   1.63785818   2.11216618  -2.58383261
 C   3.23617469   0.91156171  -3.38990237
 N   2.34866029   0.31836294  -4.23646452
 H   1.40138096   0.63435963  -4.33123917
 H   2.65366425  -0.50939053  -4.71626689
 O   4.37665154   0.50030734  -3.26115603
 N   4.70612430   0.65947177   1.37547949
 H   4.96341460  -0.13829509   0.81847858
 C   5.28023902   0.73532388   2.69501030
 H   4.97515195   1.68783842   3.11705793
 C   6.79064777   0.64045648   2.58368829
 C   4.76761465  -0.39909195   3.60466814
 H   5.29924759  -0.31467005   4.56544632
 O   7.32473929  -0.25281507   1.92814904
 C   3.27124071  -0.29711221   3.82141414
 H   2.98292231   0.70870419   4.13735404
 H   2.75393532  -0.53116877   2.89242922
 H   2.95898150  -1.02213313   4.57216393
 O   4.99765572  -1.67340286   3.01858705
 H   5.93591706  -1.74165489   2.80357769
 N   7.49359819   1.58854512   3.24909323
 H   7.00359836   2.18521337   3.89796708
 C   8.92666158   1.47406868   3.43448634
 H   9.28414038   0.78969695   2.67013346
 C   9.23290331   0.86525146   4.82620804
 C   9.58935496   2.84258808   3.33628061
 H   10.67377403   2.74917744   3.43790530
 H   9.35230428   3.32271592   2.38913574
 H   9.23205372   3.46182509   4.16267838
 O   8.69503879   1.29532952   5.87104609
 N   10.19297735  -0.10100772   4.81182000
 H   10.70733196  -0.24360506   3.96038810
 C   10.81920257  -0.51556068   6.05815982
 H   10.17101177  -0.19854628   6.87186178
 C   12.12048700   0.26225598   6.21816021
 C   10.95168610  -2.01609912   6.13670021
 H   11.61406018  -2.38120967   5.35085237
 H   11.42269753  -2.27067100   7.08831493
 O   13.22634834  -0.24577914   6.11848132
 C   9.57514077  -2.68486856   6.04736832
 H   9.21252867  -2.58075483   5.02040498
 C   9.71024202  -4.17031515   6.36479013
 H   10.01222317  -4.30942028   7.40640492
 H   10.45961546  -4.64752483   5.72803877
 H   8.76221480  -4.69264488   6.21590281
 C   8.55533236  -2.01688802   6.96970798
 H   8.95581811  -1.95349255   7.98728337
 H   7.63328070  -2.60118422   7.00646589
 H   8.28991906  -1.00874979   6.65161369
 N   11.95486138   1.59776757   6.42365885
 H   11.03365475   1.99924271   6.54823124
 C   13.11301915   2.45179268   6.58411542
 H   13.85544865   1.92168011   7.18544945
 C   12.70075079   3.69315284   7.34303629
 C   13.75160239   2.80925461   5.23796935
 H   14.60828344   3.46140603   5.39369222
 H   14.07945551   1.89536636   4.74569454
 H   13.02889954   3.31536104   4.59361517
 O   11.56892588   4.01331169   7.59888203
 O   13.76995078   4.43005684   7.70117640
 H   13.41905356   5.20043226   8.16637074
