21
conf-745
 N  -9.70504108  -6.41003459  -7.28145309
 H  -9.03364401  -6.85080237  -7.91311001
 H  -10.53685879  -6.16202887  -7.81325055
 H  -9.96450035  -7.09589781  -6.56848460
 C  -9.12966693  -5.22684167  -6.60722828
 H  -8.66747170  -4.58762967  -7.36101670
 C  -8.07833542  -5.68582300  -5.60692509
 C  -10.22798950  -4.45546951  -5.87618167
 H  -10.68520457  -5.15581066  -5.17040629
 H  -10.99599823  -4.18876002  -6.61049188
 O  -8.28816241  -6.63616516  -4.85687686
 C  -9.81032832  -3.19639204  -5.11570940
 H  -9.06572979  -3.47939855  -4.36084893
 C  -9.19548248  -2.14227031  -6.02951231
 H  -9.90519635  -1.85626647  -6.81107418
 H  -8.27943631  -2.48867215  -6.50865444
 H  -8.93821684  -1.24470491  -5.45964471
 C  -11.02742861  -2.62794314  -4.38969291
 H  -11.79514869  -2.33952298  -5.11087911
 H  -11.45654951  -3.36466799  -3.70758666
 H  -10.76199473  -1.74430083  -3.80573316
 N  -6.93420714  -4.95572161  -5.58908950
 H  -6.89325271  -4.10503455  -6.12861796
 C  -6.02878098  -4.95026793  -4.45054010
 H  -6.50026061  -5.51019002  -3.63664019
 C  -5.85901796  -3.48321150  -4.05977033
 C  -4.69586692  -5.64304858  -4.79301205
 H  -4.32108287  -5.16928556  -5.70319854
 O  -5.93118807  -2.59487560  -4.89442063
 C  -3.63914153  -5.51056815  -3.69672324
 H  -4.00976354  -5.93909718  -2.75880898
 H  -3.33117250  -4.47913978  -3.50257889
 H  -2.74405066  -6.06839356  -3.98207081
 C  -4.95615533  -7.12511727  -5.06548433
 H  -5.26091177  -7.61455281  -4.13523945
 H  -4.04962333  -7.61262789  -5.42912852
 H  -5.75043893  -7.27420602  -5.79513548
 N  -5.64382811  -3.23336582  -2.73412915
 H  -5.27743958  -4.00421656  -2.19579896
 C  -5.15758553  -1.91252349  -2.34066879
 H  -5.64516951  -1.19326979  -3.00093105
 C  -3.64412096  -1.88670343  -2.57234169
 C  -5.49402832  -1.53761619  -0.88786812
 H  -4.94010948  -2.22819539  -0.24585246
 O  -2.88345446  -2.66673391  -1.96539387
 C  -5.03689600  -0.10714024  -0.58989547
 H  -5.61996583   0.59364340  -1.19373389
 H  -3.97817181   0.06450443  -0.80630336
 H  -5.20683101   0.13457003   0.46286209
 C  -6.98923150  -1.64927301  -0.59626619
 H  -7.54599257  -0.95716767  -1.23276710
 H  -7.37502650  -2.65613531  -0.76151831
 H  -7.18411691  -1.37962205   0.44441710
 N  -3.23702096  -1.02018320  -3.54934151
 H  -3.85152564  -0.23664044  -3.72952194
 C  -1.81257429  -0.77771186  -3.75500343
 H  -1.32853308  -1.75933622  -3.72310030
 C  -1.28350830   0.10611867  -2.63007419
 C  -1.63126441  -0.14026606  -5.11824006
 H  -0.57604458   0.06673209  -5.31356665
 H  -2.16418852   0.82025469  -5.12668005
 O  -1.79132853   1.20289380  -2.38355825
 O  -2.07247411  -1.00869181  -6.14369062
 H  -2.93305129  -1.34119823  -5.86982027
 N  -0.27242331  -0.43540737  -1.91112557
 H   0.20718849  -1.25087868  -2.26246098
 C   0.36591775   0.29900994  -0.83995658
 H   0.15734023   1.35334770  -1.00238416
 C   1.88748392   0.01715521  -0.91271403
 C  -0.17575627  -0.08619151   0.55734583
 H   0.19242976   0.66441593   1.26646569
 O   2.33520388  -0.97109795  -1.52407842
 C  -1.69241644  -0.14143747   0.58758363
 H  -2.11843720   0.75324799   0.13519798
 H  -2.03737712  -1.01264729   0.02462860
 H  -2.04032802  -0.23626205   1.61597525
 O   0.36820450  -1.31750689   0.99471182
 H   0.16056955  -1.97650267   0.32772555
 N   2.63689720   0.91223954  -0.21910634
 H   2.20319796   1.58494896   0.39488364
 C   4.06165194   0.76439307  -0.05049964
 H   4.31058367  -0.29972538   0.01593560
 C   4.43631684   1.40076410   1.27444557
 C   4.88008589   1.36831530  -1.20385123
 H   5.88715447   1.59180271  -0.84431278
 H   4.42531054   2.30682417  -1.52545722
 O   3.67520635   2.15690602   1.86855369
 C   4.99142735   0.36542186  -2.34745306
 H   5.61681960   0.75901787  -3.15039933
 H   4.01188525   0.13935658  -2.77036021
 C   5.67305738  -0.88918402  -1.82767744
 N   5.14537759  -2.06328604  -2.26516415
 H   4.20734674  -2.08022488  -2.63091965
 H   5.53801467  -2.90733855  -1.88819931
 O   6.64408433  -0.82172808  -1.08968051
 N   5.66276720   1.07905764   1.73616555
 H   6.28589498   0.52106628   1.16716980
 C   6.17163398   1.60528441   2.98711624
 H   5.32165001   1.69062265   3.66716913
 C   6.77483375   2.99314562   2.75910589
 C   7.22443779   0.66419485   3.57275234
 H   7.65990145   1.16233143   4.44438337
 O   7.98372913   3.20783496   2.83925006
 C   6.65677196  -0.67708671   3.97451023
 H   5.87602740  -0.56041391   4.73111150
 H   6.22951797  -1.18614467   3.10971928
 H   7.45095875  -1.30536163   4.38116247
 O   8.23671574   0.43025876   2.60156805
 H   8.69123097   1.27543734   2.50255958
 N   5.88809699   3.95655255   2.42468679
 H   4.89362214   3.76152869   2.44925010
 C   6.30573886   5.33295569   2.29525807
 H   7.39478952   5.31755354   2.27206198
 C   5.82119694   6.11687134   3.52269121
 C   5.73357281   5.96270926   1.03219886
 H   6.11786638   6.97814908   0.91088121
 H   6.00198300   5.37708030   0.15164673
 H   4.64548036   6.01360271   1.10514007
 O   4.67945637   5.99529903   3.94892560
 N   6.73782716   6.96434277   4.05924757
 H   7.54885830   7.23516004   3.52080494
 C   6.37023208   7.94090304   5.06211858
 H   5.28094786   8.00275685   5.09625820
 C   6.95624625   9.27411341   4.60608686
 C   6.90314445   7.58146878   6.45021719
 H   7.99165763   7.50250851   6.38385381
 H   6.68832793   8.40887795   7.12912088
 O   7.89990055   9.33667479   3.84116835
 C   6.34638671   6.28882811   7.05315923
 H   6.53724967   5.47539531   6.35262603
 C   7.08052850   5.97715888   8.35403899
 H   6.92284283   6.77746025   9.08162261
 H   8.15445650   5.87804729   8.18154343
 H   6.72215772   5.04299604   8.79264953
 C   4.84094670   6.37554415   7.29095346
 H   4.61258740   7.19344457   7.98094466
 H   4.47366472   5.44645252   7.73402337
 H   4.29621258   6.54009704   6.36059584
 N   6.36198406   10.38551316   5.12478320
 H   5.76085728   10.27699747   5.92065322
 C   7.00804978   11.67720913   4.97599207
 H   7.41266316   11.73336397   3.96483276
 C   8.19061357   11.84347966   5.91409828
 C   5.99588004   12.79592869   5.21002484
 H   6.47402375   13.76810789   5.08215865
 H   5.17544334   12.70832768   4.49617630
 H   5.59099715   12.73809170   6.22176052
 O   9.11892032   12.58234343   5.70928551
 O   8.07342205   11.10536263   7.04179806
 H   8.85210067   11.30143744   7.57535943
