21
conf-549
 N  -5.51839731  -3.78966139  -7.49092464
 H  -6.51674184  -3.65177593  -7.65475664
 H  -5.14074496  -4.41796762  -8.19582686
 H  -5.06244049  -2.87588559  -7.56560059
 C  -5.24960576  -4.27882670  -6.12390586
 H  -6.04608383  -4.95852856  -5.81244560
 C  -5.25533102  -3.07020580  -5.19397061
 C  -3.91014764  -4.99710249  -6.04562791
 H  -3.70863124  -5.34408005  -5.03200292
 H  -3.89048781  -5.85771213  -6.71864786
 H  -3.10149421  -4.32089412  -6.33615575
 O  -5.01232550  -1.94047703  -5.61592689
 N  -5.50814041  -3.32443038  -3.89105753
 H  -5.54576317  -4.27571214  -3.57450269
 C  -5.46429466  -2.28239898  -2.87348426
 H  -5.90371966  -1.39118551  -3.31975180
 C  -4.00721899  -2.01655521  -2.49110372
 C  -6.27324094  -2.70443063  -1.64434939
 H  -5.92515949  -3.68610572  -1.32712937
 H  -6.04763313  -2.01561717  -0.82899347
 O  -3.50595386  -2.46141912  -1.46364858
 C  -7.74505525  -2.72304349  -1.91760980
 C  -8.53657299  -3.82245896  -2.08775195
 H  -8.28464988  -4.87005431  -2.02369369
 C  -8.59832669  -1.57540493  -2.10090895
 C  -9.88491092  -2.05232763  -2.40216542
 C  -8.36970780  -0.19453692  -2.04302383
 H  -7.38513371   0.19786652  -1.80214578
 N  -9.82498601  -3.42649860  -2.38631934
 H  -10.59453023  -4.04422545  -2.55697740
 C  -10.70838302   0.16491019  -2.59909276
 H  -11.51470662   0.86259365  -2.79103405
 C  -10.95948738  -1.19690332  -2.66072090
 H  -11.94323799  -1.58691548  -2.89661032
 C  -9.42842840   0.66127464  -2.28844618
 H  -9.27254291   1.73243520  -2.24674894
 N  -3.28859879  -1.29753669  -3.38445462
 H  -3.71945615  -1.02133336  -4.25544575
 C  -1.87020070  -1.09070942  -3.19684537
 H  -1.42151505  -2.05669351  -2.93896829
 C  -1.62341843  -0.13903687  -2.02204327
 C  -1.22973952  -0.53924130  -4.46616642
 H  -1.71998003   0.39300091  -4.73331606
 H  -0.18532831  -0.30105369  -4.25629445
 O  -2.28583280   0.86875668  -1.82847177
 C  -1.30226894  -1.53757828  -5.61890612
 H  -0.80560883  -2.47318932  -5.36088811
 H  -2.34766098  -1.77557736  -5.84898016
 C  -0.68012739  -1.02431551  -6.88167525
 O   0.08651907  -1.63148952  -7.58385808
 O  -1.10564073   0.22511291  -7.18095286
 N  -0.58912396  -0.50196569  -1.22101434
 H   0.04140957  -1.24357519  -1.48058860
 C  -0.18827346   0.30395160  -0.08943908
 H  -0.60321309   1.30218257  -0.23767250
 C   1.33561517   0.33030322  -0.09347501
 C  -0.74472183  -0.24146612   1.24870930
 H  -0.27480302  -1.21472825   1.41241142
 O   1.98543045  -0.64592517  -0.43718849
 C  -0.40583209   0.67780814   2.42237811
 H  -0.85797564   1.66305864   2.26033475
 H  -0.82335368   0.26873141   3.34569100
 H   0.66379050   0.80413052   2.56718247
 C  -2.26029310  -0.43564419   1.15744510
 H  -2.73595304   0.49368781   0.84188795
 H  -2.52526612  -1.21564289   0.44945157
 H  -2.65944341  -0.71655083   2.13357201
 N   1.91238867   1.49115869   0.30858413
 H   1.33842879   2.18734166   0.75797383
 C   3.33312748   1.56395145   0.60299116
 H   3.86535146   1.15708562  -0.25497020
 C   3.66286742   0.72532858   1.83011447
 C   3.73454535   3.02401177   0.85116649
 H   4.74665673   3.04099405   1.27546091
 O   3.14563740   0.95356074   2.92253186
 C   3.71287718   3.84830381  -0.41734605
 H   4.45087072   3.47368840  -1.13220901
 H   2.72938395   3.81535828  -0.88702895
 H   3.94664146   4.88752127  -0.18267620
 O   2.82157991   3.62486093   1.76671903
 H   2.89580388   3.13388868   2.59533661
 N   4.50838187  -0.30315369   1.62174407
 H   5.06843739  -0.31623344   0.78841485
 C   4.93688269  -1.15315543   2.72019588
 H   4.10899257  -1.18916486   3.43053534
 C   6.16326343  -0.51046574   3.35495663
 C   5.27640525  -2.57097101   2.22903148
 H   6.06151050  -2.44724856   1.47912855
 O   7.19448945  -0.37397369   2.71497821
 C   5.82021524  -3.43935269   3.36679447
 H   5.05022437  -3.56157139   4.13578855
 H   6.70677213  -3.00250310   3.83039242
 H   6.08377004  -4.43063261   2.99195956
 C   4.06174355  -3.23711935   1.58936476
 H   3.28288336  -3.38452024   2.34207891
 H   4.33559733  -4.21824256   1.19407964
 H   3.64844625  -2.64066181   0.77622038
 N   6.01846906  -0.10824216   4.64724109
 H   5.21135344  -0.43913797   5.15109615
 C   7.17822591   0.13588787   5.47661181
 H   8.02734317   0.27987708   4.81225425
 C   7.35107583  -1.18101332   6.29934074
 C   6.96379170   1.30549638   6.40718561
 H   6.10582562   1.07839897   7.04958394
 H   6.70435320   2.17287563   5.79939972
 O   6.63089414  -1.29172214   7.30634187
 C   8.19219473   1.60489895   7.25984636
 H   8.40664424   0.73402508   7.88429976
 H   9.05835508   1.74545357   6.60530567
 C   7.99842835   2.84534784   8.11571905
 H   7.72257244   3.68421250   7.46847458
 H   7.16344068   2.69119004   8.80595857
 C   9.23227063   3.24286341   8.90333152
 H   9.07935184   4.21486960   9.37541532
 H   10.07314741   3.35134364   8.21281747
 N   9.59175126   2.24441014   9.94307584
 H   10.42867396   2.51308774   10.46112650
 H   8.83403658   2.12191956   10.61449935
 H   9.77435300   1.33251165   9.52606816
 O   8.14028547  -2.00571540   5.80201636
 H  -0.67754352   0.46564585  -8.01215639
