21
conf-304
 N  -7.57022052  -6.05501319  -2.73556730
 H  -7.89700768  -5.75605197  -1.81634182
 H  -7.71750220  -7.05841474  -2.82843815
 H  -8.14460892  -5.57092531  -3.42626251
 C  -6.15464365  -5.68872475  -2.94077890
 H  -5.56052327  -6.07823902  -2.10906880
 C  -6.04019815  -4.16201743  -2.93414249
 C  -5.62599233  -6.25573186  -4.24781570
 H  -4.57967966  -5.98935803  -4.39951205
 H  -5.71053537  -7.34532281  -4.25475600
 H  -6.20550955  -5.86029732  -5.08562108
 O  -7.00746921  -3.43673828  -3.12524886
 N  -4.79479764  -3.67100157  -2.74062605
 H  -3.99432728  -4.25993733  -2.57382347
 C  -4.54917163  -2.24723414  -2.73649476
 H  -5.09897239  -1.78366671  -3.56188683
 C  -3.04407959  -2.07185068  -2.94914430
 C  -5.04264619  -1.59580406  -1.42778100
 H  -6.06588032  -1.92757632  -1.26156917
 H  -4.44024580  -1.95974811  -0.58820196
 O  -2.24213447  -2.94254080  -2.62665830
 C  -4.99343104  -0.10071519  -1.51938088
 C  -4.02199002   0.73094353  -1.05165717
 H  -3.12076232   0.51527064  -0.50603534
 C  -5.86425198   0.70694963  -2.33314116
 C  -5.33140952   2.00716700  -2.35344780
 C  -7.00283959   0.39624612  -3.08491782
 H  -7.39855509  -0.61567995  -3.09880304
 N  -4.21382378   2.01061837  -1.54424126
 H  -3.42649419   2.63107611  -1.65084424
 C  -7.06223084   2.71328304  -3.81637526
 H  -7.54870006   3.48539384  -4.40056855
 C  -5.91980697   3.03170531  -3.09273771
 H  -5.50956041   4.03534512  -3.10284656
 C  -7.60141092   1.41575832  -3.81193295
 H  -8.49131895   1.21087970  -4.39450340
 N  -2.66494192  -0.90114814  -3.52539308
 H  -3.31240118  -0.12497758  -3.47013313
 C  -1.25106295  -0.52310363  -3.53836304
 H  -0.68554327  -1.44960446  -3.64318182
 C  -0.93509678   0.12466577  -2.16923681
 C  -0.97947708   0.39214524  -4.72727798
 H  -1.27887838  -0.16083496  -5.61560543
 H  -1.61792850   1.27617787  -4.66396501
 O  -1.29728523   1.30408959  -1.94364210
 C   0.48842896   0.81187166  -4.81426607
 H   0.73139748   1.40951892  -3.92836754
 H   1.15445008  -0.04909478  -4.82305611
 C   0.78836066   1.64613967  -6.02683360
 O   1.69426515   1.46270181  -6.79841520
 O  -0.07816718   2.67639266  -6.15149789
 N  -0.40516999  -0.71507233  -1.24158241
 H  -0.30698466  -1.68502181  -1.48114025
 C  -0.22842490  -0.30744746   0.14708103
 H  -0.87774702   0.56417472   0.28598278
 C   1.22326906   0.14977617   0.31506390
 C  -0.64591356  -1.38788864   1.14471185
 H   0.08712363  -2.19164627   1.07908362
 O   2.06573928  -0.48485720   0.95391567
 C  -0.67181551  -0.82709454   2.56736403
 H  -1.40031570  -0.01589226   2.62556639
 H  -0.96043307  -1.60035544   3.28124459
 H   0.30114433  -0.43499364   2.86432642
 C  -2.02823717  -1.93754632   0.80569810
 H  -2.76046678  -1.12282138   0.82168918
 H  -2.04662088  -2.41599812  -0.17359858
 H  -2.33140002  -2.67903650   1.54684981
 N   1.54182219   1.29993291  -0.32324044
 H   0.84168707   1.77067637  -0.88059930
 C   2.89194830   1.81648694  -0.24914963
 H   3.54326983   0.93817256  -0.18218774
 C   3.04818065   2.64692178   1.02344749
 C   3.28107525   2.60299481  -1.50524423
 H   2.61074391   3.45926632  -1.59679176
 O   2.96562839   3.86792677   1.03928508
 C   4.73858399   3.03943132  -1.48219713
 H   4.94568661   3.72142528  -0.65489599
 H   5.37623961   2.15957790  -1.36640417
 H   4.99194238   3.53724941  -2.41852148
 O   3.05430908   1.81535720  -2.66812317
 H   3.64038001   1.05636456  -2.63346112
 N   3.24360701   1.93351898   2.15995936
 H   3.35202097   0.93223709   2.08855962
 C   3.78514316   2.62335368   3.31695295
 H   3.07376562   3.40404952   3.60398756
 C   5.08747769   3.31900139   2.90199763
 C   3.98404869   1.66303148   4.50411431
 H   4.59363469   0.83868429   4.12510765
 O   5.88379031   2.81804247   2.12265964
 C   4.72204782   2.30357794   5.68064204
 H   4.17309844   3.17706015   6.05016686
 H   5.73398761   2.62422967   5.41825564
 H   4.80138489   1.58584400   6.49926924
 C   2.63524832   1.13221550   4.97955428
 H   2.03981502   1.95240859   5.38613343
 H   2.76897236   0.38616861   5.76500463
 H   2.06857738   0.67178217   4.16685153
 N   5.28002664   4.53995977   3.47934431
 H   4.82139397   4.78003766   4.34615815
 C   6.56367585   5.17459901   3.42302507
 H   7.33468022   4.42838432   3.18417656
 C   6.81196645   5.75522007   4.85005853
 C   6.64964660   6.31362257   2.40701373
 H   7.64985339   6.74435570   2.48724209
 H   5.93311395   7.09988661   2.66565138
 O   7.91618903   6.25983045   5.05684131
 C   6.38272760   5.81693356   0.99351947
 H   7.00174762   4.93580021   0.80669974
 H   5.34494782   5.49208084   0.92161544
 C   6.65178427   6.86430322  -0.07586739
 H   7.70095897   7.17752099  -0.04098603
 H   6.48474167   6.41840128  -1.06202688
 C   5.77237184   8.09013475   0.05201823
 H   5.99608967   8.60727068   0.98758131
 H   4.72472101   7.78187740   0.09405935
 N   5.96949152   9.03643642  -1.07497388
 H   5.38117845   9.86573462  -0.99241038
 H   6.93768895   9.35060946  -1.12133463
 H   5.75062931   8.59138680  -1.96492242
 O   5.84335560   5.64101808   5.63647399
 H   0.19463603   3.16923518  -6.93529084
