21
conf-474
 N  -9.03471491  -0.31772372  -4.00535572
 H  -8.89183468   0.52107327  -3.43667852
 H  -9.87040170  -0.79839213  -3.67472794
 H  -9.17573494  -0.00021321  -4.96571133
 C  -7.83075275  -1.16671769  -3.92970236
 H  -7.65944928  -1.43663740  -2.88197531
 C  -6.64120169  -0.34040923  -4.42047853
 C  -7.98437121  -2.43005944  -4.76288029
 H  -7.09782451  -3.06053002  -4.68110995
 H  -8.85354889  -3.00307658  -4.43145396
 H  -8.12460500  -2.16660286  -5.81375140
 O  -6.78369113   0.58326100  -5.21261659
 N  -5.43136644  -0.71944020  -3.94923964
 H  -5.30249464  -1.48795220  -3.30950898
 C  -4.22778682   0.00478325  -4.27305176
 H  -4.13721427   0.08933240  -5.35979709
 C  -3.07742405  -0.83440943  -3.71616637
 C  -4.20525824   1.44219145  -3.69852278
 H  -3.19804106   1.85099525  -3.83720333
 H  -4.89827927   2.03705753  -4.28701395
 O  -3.26103988  -1.78515579  -2.97937091
 C  -4.57477536   1.51065284  -2.24696114
 C  -3.75024900   1.27132562  -1.18271651
 H  -2.69958791   1.03830679  -1.19975864
 C  -5.86912949   1.81410631  -1.68013895
 C  -5.75996572   1.70107378  -0.28408101
 C  -7.10434804   2.18324989  -2.23549278
 H  -7.22034365   2.28791456  -3.30741523
 N  -4.45295751   1.37146023  -0.00701130
 H  -4.07179227   1.19612984   0.90273300
 C  -8.04976006   2.25600172   0.00109192
 H  -8.91388898   2.42536433   0.63217290
 C  -6.83806642   1.91038488   0.57936287
 H  -6.72992275   1.80861885   1.65341505
 C  -8.17814350   2.38698466  -1.39205901
 H  -9.13875220   2.65902053  -1.81214748
 N  -1.83440189  -0.42965940  -4.11444686
 H  -1.77507464   0.50489466  -4.48185010
 C  -0.65455624  -0.88964212  -3.39965774
 H  -0.85812654  -1.91001677  -3.08078352
 C  -0.43303539  -0.02920294  -2.12481807
 C   0.57727319  -0.83008094  -4.29085861
 H   0.69173427   0.19634672  -4.63805280
 H   1.46312362  -1.05522649  -3.69214189
 O  -0.42851876   1.22596302  -2.18225196
 C   0.50537767  -1.80554774  -5.46609380
 H   0.40292420  -2.83367989  -5.11230793
 H  -0.36013836  -1.60589139  -6.10220373
 C   1.72293092  -1.72421277  -6.34507445
 O   2.56909849  -0.86604581  -6.30307221
 O   1.76413881  -2.74116244  -7.23587141
 N  -0.27098728  -0.76571512  -0.98228149
 H  -0.07310483  -1.74234570  -1.09898148
 C   0.08187807  -0.16989649   0.30795651
 H  -0.40078846   0.81061269   0.32419297
 C   1.60477736  -0.00738082   0.30864636
 C  -0.42775855  -1.00466581   1.48239039
 H  -0.01406415  -2.00852811   1.35991088
 O   2.38236909  -0.90828945   0.64484332
 C   0.04434608  -0.42908218   2.81918676
 H  -0.33726458   0.58699843   2.94038411
 H  -0.32498651  -1.03672651   3.64824118
 H   1.13382105  -0.39807803   2.87259050
 C  -1.95370547  -1.07954800   1.47834346
 H  -2.36431744  -0.11574342   1.79944853
 H  -2.34856541  -1.30580725   0.48440622
 H  -2.30029772  -1.84260245   2.17839759
 N   2.02215327   1.19625697  -0.14801367
 H   1.33202132   1.82833679  -0.52033788
 C   3.40523781   1.43631774  -0.49091347
 H   3.87495096   0.45500026  -0.58899539
 C   4.04722096   2.20951856   0.65691502
 C   3.51234025   2.16656251  -1.82497439
 H   3.04407014   3.15423005  -1.70138540
 O   4.26427698   3.41420636   0.58895950
 C   4.94597415   2.28741981  -2.29903375
 H   5.54659399   2.84172094  -1.57842632
 H   5.36570475   1.28615320  -2.41238278
 H   4.97922821   2.79087426  -3.26513166
 O   2.83191098   1.41938764  -2.82923738
 H   1.88570825   1.48099043  -2.66543300
 N   4.31934593   1.47744241   1.75825330
 H   3.98074027   0.52549207   1.77666826
 C   4.74073206   2.07742334   3.01036066
 H   4.00135726   2.83792600   3.28545908
 C   6.08009374   2.79502462   2.85460624
 C   4.79664950   1.01742454   4.13925115
 H   3.80904994   0.54431924   4.11415028
 O   6.99727231   2.38774722   2.16108253
 C   5.86767320  -0.04255984   3.88616479
 H   6.86004784   0.40505072   3.94560120
 H   5.75947869  -0.49189472   2.89685967
 H   5.80098921  -0.83445682   4.63606305
 C   4.99168815   1.64128165   5.52090379
 H   5.99946499   2.04674254   5.63181352
 H   4.85595895   0.88228726   6.29363679
 H   4.27021861   2.44139425   5.71072312
 N   6.17230176   3.93807215   3.59288049
 H   5.47291147   4.17824782   4.27001737
 C   7.41552925   4.65838318   3.73285654
 H   8.21006047   4.00200240   3.37633082
 C   7.51389121   4.85953018   5.28092389
 C   7.38962043   5.97666254   2.97496247
 H   8.35050729   6.48426887   3.09599196
 H   6.63322271   6.62301679   3.42923509
 O   6.99824792   5.89094173   5.73855839
 C   7.07606551   5.76258785   1.49892219
 H   7.90753668   5.23059113   1.02305844
 H   6.22164963   5.10064591   1.42668113
 C   6.77848151   7.04600684   0.74273575
 H   6.06189292   7.65014486   1.31015608
 H   7.69239293   7.64140656   0.64960830
 C   6.21666590   6.78930382  -0.64538426
 H   6.88752048   6.11288377  -1.18334629
 H   6.18391584   7.72181963  -1.21447779
 N   4.85795875   6.18437295  -0.60116113
 H   4.42954497   6.13892263  -1.52624441
 H   4.86341507   5.23747075  -0.22703054
 H   4.24581339   6.73335104  -0.00037379
 O   8.02357326   3.90850747   5.89525970
 H   2.56104064  -2.60117858  -7.76414265
