21
conf-34
 N  -4.72265920  -0.62622576  -9.32121120
 H  -5.57417776  -0.10681653  -9.54079404
 H  -4.38418790  -1.07890237  -10.16892756
 H  -4.02054228   0.04885455  -9.00762012
 C  -4.94539633  -1.60632318  -8.23861025
 H  -5.78739851  -2.25181501  -8.49569183
 C  -5.27586598  -0.87685385  -6.94783204
 C  -3.69025828  -2.44972069  -8.01774763
 H  -3.78638320  -3.04810994  -7.10809108
 H  -3.50085031  -3.10425469  -8.87005615
 H  -2.82964256  -1.78545586  -7.89787448
 O  -4.86559290   0.25438746  -6.71542851
 N  -5.99258412  -1.60020112  -6.02737202
 H  -6.03411947  -2.58809669  -6.21509182
 C  -5.78809553  -1.28376711  -4.60889830
 H  -5.98949054  -0.22376270  -4.47682058
 C  -4.33465645  -1.58058693  -4.25042481
 C  -6.72181638  -2.12082799  -3.72821249
 H  -7.75000100  -1.88354790  -4.00272235
 H  -6.54669751  -3.17479873  -3.94884058
 O  -3.81899705  -2.66293450  -4.53639369
 C  -6.47982201  -1.89552364  -2.26021548
 C  -6.09118182  -2.85221893  -1.36439502
 H  -5.92244510  -3.90710855  -1.51531891
 C  -6.51602200  -0.65003704  -1.54034851
 C  -6.15988474  -0.92504843  -0.20849108
 C  -6.79409003   0.67275624  -1.91868751
 H  -7.06860998   0.90518609  -2.94293345
 N  -5.90422630  -2.27405267  -0.12434310
 H  -5.71826951  -2.77275481   0.72327809
 C  -6.36261788   1.37098703   0.36737733
 H  -6.31565474   2.17218222   1.09466537
 C  -6.08372131   0.07060187   0.76785222
 H  -5.81265749  -0.16456691   1.79155252
 C  -6.71131499   1.66788448  -0.96001904
 H  -6.92420178   2.69336002  -1.23459428
 N  -3.68098840  -0.57333917  -3.63490285
 H  -4.17596200   0.25216036  -3.34007454
 C  -2.28383571  -0.65815134  -3.29269376
 H  -2.01623236  -1.71925752  -3.28367019
 C  -2.10449708  -0.05182018  -1.89421849
 C  -1.39954148   0.04669252  -4.33002032
 H  -1.58563148   1.11968296  -4.30494589
 H  -0.35711516  -0.11071283  -4.06359378
 O  -2.91623603   0.72434160  -1.42001163
 C  -1.67120716  -0.49994114  -5.73117273
 H  -1.66240439  -1.59547981  -5.70237221
 H  -2.65310036  -0.20365920  -6.09509226
 C  -0.69665707  -0.07469609  -6.78233612
 O  -0.98549337   0.10460248  -7.94069757
 O   0.56550465   0.04808055  -6.32926396
 N  -0.97693830  -0.43171473  -1.24478463
 H  -0.25347012  -0.94595430  -1.72459295
 C  -0.51354502   0.23831573  -0.04273157
 H  -1.01626257   1.20849924   0.02819869
 C   0.99373713   0.41256585  -0.24036355
 C  -0.85572024  -0.55052396   1.24435058
 H  -0.28760000  -1.48399684   1.20532024
 O   1.63237127  -0.35939602  -0.95383144
 C  -0.48684499   0.20879701   2.51968812
 H  -1.04121069   1.15371053   2.55139599
 H  -0.78324839  -0.37746020   3.39316791
 H   0.57716159   0.42677602   2.60863837
 C  -2.34708212  -0.88636737   1.28430477
 H  -2.93772848   0.03568664   1.28746079
 H  -2.65040490  -1.49337283   0.43131266
 H  -2.57167662  -1.44256026   2.19689071
 N   1.58641493   1.41782660   0.43008475
 H   1.07824241   2.00355342   1.07667903
 C   3.02774875   1.54261186   0.52952147
 H   3.47218072   0.54645972   0.45006793
 C   3.29047962   2.16249466   1.90090642
 C   3.58983084   2.39953789  -0.63006481
 H   3.16511827   3.40696812  -0.54422988
 O   2.46845095   2.89883933   2.42164022
 C   5.10709164   2.47838327  -0.61483502
 H   5.47399875   3.01075028   0.26230499
 H   5.54212586   1.47138237  -0.63018402
 H   5.44472862   3.00175067  -1.51077742
 O   3.15959371   1.87794709  -1.87361652
 H   2.91419329   0.95723532  -1.72993775
 N   4.47133565   1.82615930   2.49443853
 H   5.19511574   1.44689726   1.90354492
 C   4.94782401   2.57004693   3.64985886
 H   4.06216755   2.96410537   4.15329135
 C   5.81784953   3.72429584   3.15624787
 C   5.73270111   1.67699618   4.63407372
 H   6.53504180   1.21263915   4.05503426
 O   6.67188471   3.54635467   2.28682033
 C   6.36796313   2.48585707   5.76706174
 H   5.60200897   3.04038366   6.31989324
 H   7.11000958   3.19974916   5.39978690
 H   6.86868940   1.81426838   6.46745182
 C   4.82923100   0.59708320   5.22629566
 H   4.04979433   1.06446505   5.83351705
 H   5.41148110  -0.06283498   5.87321993
 H   4.35056708  -0.01444030   4.46036172
 N   5.62158756   4.91706876   3.78772962
 H   5.16147836   4.93014360   4.69050713
 C   6.61703787   5.95486638   3.74909933
 H   7.59136305   5.54740669   3.43867450
 C   6.72118425   6.48897937   5.21055241
 C   6.25467695   7.12370906   2.83743681
 H   6.91990949   7.95604778   3.08716895
 H   5.23228429   7.44771924   3.05374504
 O   7.59542899   7.32976994   5.43043369
 C   6.39304732   6.78323091   1.36041050
 H   7.44141202   6.53575161   1.16299732
 H   5.81958596   5.88724594   1.12746508
 C   5.94940244   7.94176243   0.48087111
 H   4.89827320   8.16167767   0.69442776
 H   6.51931973   8.83829812   0.74441232
 C   6.08679610   7.68757474  -1.00760098
 H   5.58967070   8.48123103  -1.56824945
 H   5.57841445   6.75427885  -1.26137943
 N   7.50465546   7.59476372  -1.44286840
 H   7.58962059   7.42209051  -2.44481059
 H   8.01145978   8.45368569  -1.22992063
 H   7.98737683   6.83624412  -0.96352333
 O   5.89628602   5.99447953   6.01395064
 H   1.10277007   0.30559646  -7.08958973
