21
conf-81
 N  -7.95028591  -4.04300542  -5.17123852
 H  -8.42575413  -3.63026412  -4.35942665
 H  -8.34526875  -4.96548269  -5.34992203
 H  -8.11651088  -3.43587141  -5.97991000
 C  -6.49923202  -4.10669290  -4.91993048
 H  -6.33093917  -4.55224906  -3.93255728
 C  -5.97486031  -2.67434941  -4.89990704
 C  -5.78622818  -4.91892314  -5.98622187
 H  -4.71356059  -4.96633315  -5.79021294
 H  -6.18158226  -5.93751409  -6.01457029
 H  -5.94036057  -4.46163446  -6.96556980
 O  -6.42211331  -1.81965263  -5.65168636
 N  -4.96436097  -2.43195642  -4.02711059
 H  -4.59194656  -3.16557238  -3.44709967
 C  -4.51584307  -1.08544241  -3.74220959
 H  -4.75834077  -0.48187186  -4.61278981
 C  -3.01738294  -1.14420713  -3.49245390
 C  -5.21192829  -0.50406629  -2.49384791
 H  -4.87859790  -1.06971495  -1.61652405
 H  -4.88788594   0.53177551  -2.36758993
 O  -2.53016358  -2.03218067  -2.79095046
 C  -6.70803506  -0.55652186  -2.59963803
 C  -7.52990452   0.40999417  -3.10977781
 H  -7.28510780   1.39616723  -3.47496563
 C  -7.55512553  -1.67691883  -2.27139088
 C  -8.86482058  -1.33805746  -2.63099936
 C  -7.29955048  -2.93959529  -1.72475876
 H  -6.28735593  -3.23101858  -1.45102114
 N  -8.82891218  -0.05687664  -3.14110550
 H  -9.61631327   0.45694547  -3.48908290
 C  -9.65268614  -3.46658478  -1.94502256
 H  -10.44837000  -4.19729767  -1.85309939
 C  -9.93217574  -2.22005916  -2.48148329
 H  -10.93124827  -1.95522837  -2.80926671
 C  -8.35227083  -3.82051865  -1.56830607
 H  -8.16437872  -4.81784230  -1.18845870
 N  -2.27020979  -0.16896935  -4.04870327
 H  -2.72258059   0.62097195  -4.47759676
 C  -0.83323679  -0.08838099  -3.79295827
 H  -0.49242010  -1.12371088  -3.73659656
 C  -0.61999224   0.59962893  -2.44265438
 C  -0.12842271   0.62902216  -4.93176671
 H  -0.53637350   0.22465887  -5.85861273
 H  -0.36935456   1.69199754  -4.90502660
 O  -0.32998110   1.79958027  -2.35348465
 C   1.38599240   0.41491199  -4.91935118
 H   1.83274233   0.83292443  -4.01219838
 H   1.63191112  -0.64582953  -4.94607369
 C   2.07366212   1.06565518  -6.08464603
 O   2.88742731   0.53918984  -6.79870328
 O   1.69551162   2.35503933  -6.24205019
 N  -0.82417905  -0.16984827  -1.35701726
 H  -1.13130495  -1.12608825  -1.47739144
 C  -0.75043361   0.38927156  -0.01651130
 H  -1.19251080   1.38917349  -0.06198925
 C   0.72940531   0.52508071   0.33882357
 C  -1.52431739  -0.45324943   0.99972862
 H  -1.09079225  -1.45487018   0.97885670
 O   1.39749407  -0.40240593   0.79745712
 C  -1.38543906   0.12034991   2.41171871
 H  -1.80028726   1.13046372   2.44567079
 H  -1.92766802  -0.49840448   3.12962252
 H  -0.33821320   0.16757986   2.72100438
 C  -2.99969006  -0.52859029   0.61691480
 H  -3.43930253   0.47089738   0.67830020
 H  -3.15088993  -0.90471188  -0.39900309
 H  -3.53688677  -1.18268940   1.30550274
 N   1.25713359   1.74396134   0.08138088
 H   0.68149580   2.44527925  -0.35528127
 C   2.68924985   1.92575094   0.06580439
 H   3.11457903   0.92301933  -0.03480543
 C   3.13542148   2.52962160   1.39004370
 C   3.14600637   2.76348910  -1.12665149
 H   2.75833680   3.78422548  -1.00869813
 O   3.40887981   3.71341741   1.53015097
 C   4.65832831   2.76531692  -1.25227003
 H   5.12532961   3.17151663  -0.34980170
 H   4.99469800   1.73694625  -1.39125161
 H   4.95692182   3.36214653  -2.11136669
 O   2.64443785   2.18335658  -2.32201279
 H   1.68526454   2.28585257  -2.35089158
 N   3.16584768   1.66020975   2.43497354
 H   3.05424105   0.67950126   2.22811351
 C   3.98697686   2.01466286   3.58384738
 H   3.60393427   2.95750707   3.98317603
 C   5.41935664   2.25875457   3.09742097
 C   3.90703495   0.92797497   4.67168550
 H   4.16154482  -0.01065381   4.17132728
 O   5.93019060   1.61240171   2.19135386
 C   4.89205493   1.14523802   5.82132616
 H   4.67946762   2.09382287   6.33036018
 H   5.93508451   1.15688383   5.49618857
 H   4.77999786   0.34302593   6.55383846
 C   2.48431341   0.84577767   5.21951243
 H   2.23413780   1.77471770   5.73638166
 H   2.38798566   0.02268866   5.93032795
 H   1.75756577   0.69422243   4.41876342
 N   6.07455477   3.25701032   3.75379675
 H   5.66524182   3.68714955   4.56142056
 C   7.50357666   3.41665647   3.62992036
 H   7.88250385   2.51870857   3.13975890
 C   8.00510384   3.47772651   5.11309677
 C   7.88615096   4.66780737   2.85823643
 H   8.97874689   4.72969076   2.82593809
 H   7.53917968   5.54871583   3.40435728
 O   7.92863533   4.58495861   5.66850789
 C   7.33956599   4.66342098   1.43594000
 H   7.60203977   3.71631745   0.95812670
 H   6.24896244   4.69748467   1.45974747
 C   7.86753924   5.82737986   0.61880404
 H   7.60159366   6.76541595   1.11574364
 H   8.96140920   5.78152486   0.59144680
 C   7.33780732   5.87188392  -0.80592962
 H   7.72551319   6.75315270  -1.32134535
 H   6.24571742   5.97273039  -0.78117618
 N   7.68078488   4.64874902  -1.57420089
 H   7.73779277   4.82694761  -2.57695461
 H   8.57493001   4.26618261  -1.27076733
 H   6.98028466   3.91799159  -1.43490532
 O   8.35816464   2.38724612   5.59490288
 H   2.19835016   2.69324270  -6.99380380
