21
conf-962
 N  -6.66711713  -1.61707998  -7.19622929
 H  -7.56459377  -1.93288552  -6.82220766
 H  -6.68200692  -1.72527845  -8.20987563
 H  -6.57650353  -0.62106773  -6.98405811
 C  -5.53478169  -2.36738972  -6.60550238
 H  -5.68278205  -3.42975276  -6.79974062
 C  -5.48171388  -2.17053413  -5.07784799
 C  -4.21490632  -1.89396872  -7.20282616
 H  -3.37343486  -2.48005160  -6.82217061
 H  -4.22943952  -1.95300413  -8.29103931
 H  -4.06543380  -0.85411460  -6.89933124
 O  -5.63892380  -1.04049216  -4.55055432
 N  -5.17090727  -3.29353758  -4.37197974
 H  -4.90166545  -4.11939286  -4.87666269
 C  -4.77701012  -3.20104901  -2.97256437
 H  -5.14435215  -2.24850552  -2.59769830
 C  -3.25504044  -3.12748656  -2.87289665
 C  -5.42678238  -4.29067152  -2.14064750
 H  -5.24359492  -5.27151798  -2.58538250
 H  -4.95061379  -4.31673835  -1.15784708
 O  -2.56566744  -3.96246540  -2.31182537
 C  -6.89995697  -4.00577626  -2.01130188
 C  -7.61964948  -2.92287404  -2.46259105
 H  -7.28317991  -2.06784620  -3.03233991
 C  -7.84685555  -4.85970380  -1.34087790
 C  -9.10738590  -4.24835378  -1.42768217
 C  -7.71868257  -6.09104619  -0.68355642
 H  -6.75542117  -6.58590483  -0.60372495
 N  -8.94431213  -3.07110764  -2.12034321
 H  -9.67882276  -2.41667815  -2.31746256
 C  -10.10716725  -6.03551250  -0.22900983
 H  -10.97404416  -6.51200119   0.21262585
 C  -10.25650633  -4.81860793  -0.87697535
 H  -11.22011008  -4.32753850  -0.95566278
 C  -8.85192380  -6.66482986  -0.13364612
 H  -8.77661067  -7.61597025   0.38007550
 N  -2.72256334  -2.05909463  -3.53910367
 H  -3.34403314  -1.29058606  -3.77191640
 C  -1.31803836  -1.71993007  -3.41124842
 H  -0.79538092  -2.63688683  -3.15884174
 C  -1.16431435  -0.67373301  -2.31967569
 C  -0.79929966  -1.12812883  -4.72689471
 H  -0.62928915  -1.94833181  -5.42448194
 H  -1.59587957  -0.49553343  -5.13635445
 O  -1.82407395   0.36201005  -2.34175781
 C   0.45790719  -0.27715089  -4.55892834
 H   0.83505347   0.05985021  -5.52735016
 H   0.22015215   0.61980494  -3.97523203
 C   1.56852856  -0.99612878  -3.85283743
 O   1.58253831  -2.17794545  -3.59065027
 O   2.56989931  -0.16745863  -3.51845730
 N  -0.22729920  -0.94400951  -1.37950466
 H   0.35033880  -1.76648910  -1.46383010
 C   0.10981677   0.04238314  -0.38315870
 H  -0.40557090   0.95857013  -0.68067344
 C   1.62723707   0.35656622  -0.42366207
 C  -0.39613065  -0.32811751   1.02417848
 H  -0.11133776   0.50606081   1.67524600
 O   2.52576209  -0.48715580  -0.65408639
 C  -1.92496586  -0.43017972   1.01831236
 H  -2.23877264  -1.35326389   0.52428431
 H  -2.31006219  -0.44849624   2.03956231
 H  -2.37708037   0.40376504   0.47667373
 C   0.24007142  -1.60909816   1.55009301
 H  -0.08688126  -2.46040908   0.94840487
 H   1.32978623  -1.55682089   1.50004678
 H  -0.05271062  -1.79281739   2.58667280
 N   1.89659403   1.67072936  -0.12255554
 H   1.15018154   2.34602404  -0.05465835
 C   3.24038682   2.20924885  -0.21900623
 H   3.84989547   1.47721430  -0.75640991
 C   3.80726441   2.34642201   1.18485683
 C   3.24107957   3.50636036  -1.00724577
 H   4.24277169   3.94322844  -0.95081685
 O   4.10611208   3.43467610   1.68246200
 C   2.85732980   3.25123510  -2.45088845
 H   3.55202074   2.54804007  -2.91436225
 H   1.85260171   2.82734565  -2.51095691
 H   2.86647290   4.18426959  -3.01548980
 O   2.29118474   4.40445756  -0.44742043
 H   2.65984324   4.67820828   0.39989737
 N   3.91879366   1.18752809   1.86779426
 H   3.71187262   0.31323220   1.40685578
 C   4.44311439   1.18080516   3.22514468
 H   4.08088152   2.10158677   3.69285128
 C   5.97458235   1.23640146   3.15868729
 C   3.93950406  -0.01400406   4.04353894
 H   4.30722867  -0.91425521   3.54682467
 O   6.69339846   0.25233077   3.19712024
 C   4.48061686   0.03868177   5.47703762
 H   4.16098295   0.96978287   5.95244146
 H   5.57077533   0.00015519   5.50161652
 H   4.08856256  -0.79701860   6.06130273
 C   2.41521464  -0.03450438   4.07142724
 H   2.04077748   0.81989066   4.63991618
 H   2.05272327  -0.94815201   4.55071440
 H   1.98702790   0.01404517   3.06655944
 N   6.49955834   2.47489559   2.99869676
 H   5.91271734   3.26808052   2.77865123
 C   7.92580577   2.60636214   3.13763432
 H   8.42851210   2.13618055   2.28310457
 C   8.38050663   1.86510355   4.44931202
 C   8.33597647   4.06783684   3.30068014
 H   7.60555174   4.54075099   3.96467727
 H   8.27768415   4.57304417   2.33233613
 O   9.41318418   1.17472520   4.33482858
 C   9.72465318   4.20286480   3.92634593
 H   9.96522991   5.26307425   4.05902990
 H   9.68101974   3.76806535   4.92766794
 C   10.81972914   3.54312361   3.09773025
 H   10.47809291   2.57623639   2.72101431
 H   11.03131268   4.15875758   2.21740030
 C   12.11464004   3.31950492   3.86862304
 H   12.52100799   4.27269992   4.21681649
 H   12.86479343   2.88477080   3.20385129
 N   11.90016862   2.42265003   5.03451453
 H   12.71178712   1.83031679   5.21227096
 H   11.70523528   2.96262192   5.87673746
 H   11.08435517   1.82263229   4.86832385
 O   7.71334103   2.09177825   5.45742048
 H   3.15757367  -0.67310027  -2.93845302
