21
conf-123
 N  -8.09775033  -2.79031858  -6.79718469
 H  -8.74567364  -2.20310984  -6.26877994
 H  -8.58073987  -3.62387907  -7.12383447
 H  -7.78037154  -2.24128784  -7.60032549
 C  -6.89474732  -3.12199336  -6.00617879
 H  -7.19107424  -3.38602200  -4.98749898
 C  -6.00699554  -1.87808634  -5.96200886
 C  -6.13879325  -4.28120305  -6.63923819
 H  -5.24646086  -4.53123946  -6.06376099
 H  -6.77200434  -5.17008974  -6.69875539
 H  -5.82673845  -4.01135988  -7.65149410
 O  -6.04229432  -1.04341205  -6.85351414
 N  -5.17552410  -1.79309552  -4.88658376
 H  -5.02577963  -2.59963866  -4.29939839
 C  -4.16176397  -0.76723096  -4.77292942
 H  -4.10522429  -0.24852238  -5.73174093
 C  -2.83856592  -1.43314295  -4.41841413
 C  -4.51373719   0.24249142  -3.65914277
 H  -4.71254720  -0.32125405  -2.74516307
 H  -3.65139316   0.88647688  -3.46796084
 O  -2.78279641  -2.46445158  -3.77779792
 C  -5.70997702   1.06499239  -4.02609679
 C  -7.01729142   0.69213774  -3.88952985
 H  -7.41801247  -0.22952596  -3.49484491
 C  -5.71875197   2.36047006  -4.65667853
 C  -7.06063047   2.71502222  -4.86856307
 C  -4.69717082   3.23079252  -5.05389687
 H  -3.65324833   2.97142731  -4.90054354
 N  -7.83594966   1.68006457  -4.39104390
 H  -8.83624047   1.63126895  -4.43799237
 C  -6.40099331   4.77033898  -5.85361553
 H  -6.64315223   5.71643674  -6.32249673
 C  -7.42740311   3.92138705  -5.46873214
 H  -8.46926226   4.17894638  -5.62455971
 C  -5.05035911   4.42986375  -5.64933344
 H  -4.27669235   5.12019940  -5.96384704
 N  -1.71916663  -0.75439671  -4.83073899
 H  -1.87852926   0.19881206  -5.11312141
 C  -0.48066768  -0.92381584  -4.06773724
 H  -0.40691169  -1.97991621  -3.80790775
 C  -0.59557350  -0.06837775  -2.81035535
 C   0.71811696  -0.48508541  -4.90517196
 H   0.67990195  -1.01243937  -5.85693621
 H   0.61611559   0.57983902  -5.11322772
 O  -0.88143130   1.12136770  -2.88726246
 C   2.05574275  -0.76560526  -4.21543498
 H   2.13133041  -0.25849661  -3.25485285
 H   2.16118144  -1.83918921  -4.03019177
 C   3.23273187  -0.34491133  -5.04959566
 O   4.15888702   0.32344472  -4.66875952
 O   3.15815078  -0.83170408  -6.30878186
 N  -0.42223216  -0.71244633  -1.62734167
 H   0.04400193  -1.60404859  -1.64943816
 C  -0.24937301   0.07450998  -0.40921979
 H  -0.92763777   0.92479652  -0.49694424
 C   1.19668630   0.55534864  -0.36928104
 C  -0.60826118  -0.72855071   0.84995742
 H   0.05417043  -1.59853481   0.85966789
 O   2.13077315  -0.25409900  -0.41764050
 C  -0.38207152   0.08612240   2.12603896
 H  -1.00925704   0.98292393   2.10961313
 H  -0.66361044  -0.50541039   3.00011049
 H   0.65249074   0.40604069   2.26221494
 C  -2.06168330  -1.19700162   0.81071287
 H  -2.72794929  -0.33084397   0.82824175
 H  -2.28428528  -1.78439598  -0.08074451
 H  -2.28007978  -1.80882772   1.68865738
 N   1.38637029   1.89121556  -0.31585548
 H   0.60256002   2.49439432  -0.12356362
 C   2.70711431   2.44065305  -0.06531899
 H   3.39046386   1.97123361  -0.77467629
 C   3.15792489   2.08754741   1.34832164
 C   2.68284201   3.96514499  -0.25691284
 H   3.60444912   4.38472891   0.16700514
 O   2.45480034   2.36055871   2.32917540
 C   2.57752881   4.34786622  -1.71661793
 H   3.45553540   4.00653805  -2.27077749
 H   1.68967295   3.90078910  -2.16521846
 H   2.50102646   5.43169461  -1.80815549
 O   1.55115980   4.52732368   0.40380604
 H   1.66411918   4.37204422   1.35044385
 N   4.33746665   1.43755896   1.43364506
 H   4.92369963   1.32010886   0.62136134
 C   4.90805249   1.01650331   2.69749788
 H   4.44270139   1.60858802   3.49005756
 C   6.40802473   1.31147345   2.61176930
 C   4.64381820  -0.47885295   3.01262970
 H   5.24812051  -1.06343847   2.31385753
 O   7.01831285   1.22067987   1.56125280
 C   5.06002292  -0.82236627   4.44416321
 H   4.42574275  -0.26897117   5.14647431
 H   6.09770094  -0.57669053   4.66150625
 H   4.91453218  -1.88904581   4.63168324
 C   3.17158669  -0.84012425   2.80751208
 H   2.53498084  -0.14125928   3.35233870
 H   2.98326185  -1.84629500   3.18492996
 H   2.89110846  -0.81866606   1.75437325
 N   7.00950688   1.64187299   3.78003197
 H   6.58671758   1.46914231   4.68260372
 C   8.44423848   1.66490511   3.88617922
 H   8.87335854   0.83044075   3.31010133
 C   8.73134732   1.43207384   5.39477304
 C   9.04622431   2.97145201   3.37245736
 H   8.78234514   3.78651959   4.05293419
 H   8.56701228   3.18339492   2.41530579
 O   9.90781139   1.46509312   5.76980853
 C   10.55612329   2.88679716   3.19301902
 H   11.01580838   2.55349118   4.12517545
 H   10.77079839   2.11313739   2.44672108
 C   11.15115789   4.20481853   2.72868982
 H   10.63647836   4.53110697   1.81923722
 H   10.97180677   4.97393611   3.48651596
 C   12.63684165   4.12747654   2.43234315
 H   12.97611590   5.04941703   1.95721690
 H   12.81278301   3.31679727   1.71978957
 N   13.44710008   3.87864819   3.65218337
 H   14.43747842   3.75734498   3.43942616
 H   13.36189751   4.64730476   4.31718065
 H   13.13087974   3.03456704   4.12946530
 O   7.71758609   1.19777602   6.08497257
 H   3.95671557  -0.53319068  -6.76131735
