21
conf-448
 N  -6.43183774  -1.72035871  -7.61409393
 H  -7.38743826  -1.36772905  -7.54694523
 H  -6.26916350  -2.09647547  -8.54470701
 H  -5.79888469  -0.93314202  -7.44385813
 C  -6.14403630  -2.71777563  -6.56536606
 H  -7.04848479  -3.29045317  -6.34419165
 C  -5.73888357  -1.95322571  -5.30669585
 C  -5.03419764  -3.67215600  -6.98894548
 H  -4.83942150  -4.41118976  -6.21032525
 H  -5.31305405  -4.20111737  -7.90335228
 H  -4.10462590  -3.13227144  -7.17768548
 O  -5.30573921  -0.80516278  -5.37721653
 N  -5.84465948  -2.62541288  -4.14183414
 H  -6.22051302  -3.55549812  -4.13740206
 C  -5.50004961  -2.02786042  -2.85922939
 H  -5.80434565  -0.98179795  -2.90054799
 C  -3.98155268  -2.10293616  -2.65629527
 C  -6.23145023  -2.75299942  -1.73464239
 H  -5.96076289  -3.80906252  -1.76283857
 H  -5.84414820  -2.38008436  -0.77961064
 O  -3.45120685  -2.89035515  -1.87120445
 C  -7.71868807  -2.58701128  -1.80487391
 C  -8.44632968  -1.61523634  -2.44400614
 H  -8.12761252  -0.77467518  -3.03593077
 C  -8.67783776  -3.45272285  -1.16422724
 C  -9.95792854  -2.95619329  -1.45753789
 C  -8.54671107  -4.60390687  -0.37658865
 H  -7.57127999  -5.00834659  -0.12975302
 N  -9.79250680  -1.83910869  -2.23833460
 H  -10.53506315  -1.26060724  -2.58389375
 C  -10.97181422  -4.70355728  -0.21212359
 H  -11.85073755  -5.20811776   0.17051411
 C  -11.12457851  -3.56662578  -0.99001843
 H  -12.10308410  -3.16477545  -1.22878903
 C  -9.69630836  -5.21640714   0.09149220
 H  -9.61725275  -6.10812650   0.70209136
 N  -3.25193312  -1.26770907  -3.43232116
 H  -3.72417967  -0.63259599  -4.06192427
 C  -1.80862456  -1.21185670  -3.31332916
 H  -1.44928309  -2.23789850  -3.19967902
 C  -1.43509956  -0.41324157  -2.06209301
 C  -1.18584273  -0.54839580  -4.53765690
 H  -1.51175858   0.49238069  -4.56354503
 H  -0.10117335  -0.54067792  -4.42236549
 O  -1.82158923   0.73616969  -1.88446580
 C  -1.55467148  -1.23675017  -5.85139464
 H  -2.63873298  -1.26244512  -5.99738447
 H  -1.13268251  -0.67056458  -6.68617550
 C  -1.04335391  -2.63988100  -5.96588719
 O  -1.67562795  -3.59080822  -6.35768572
 O   0.25649337  -2.74561314  -5.60678607
 N  -0.66270799  -1.07912600  -1.17498332
 H  -0.32658738  -2.00658274  -1.37727304
 C  -0.24142401  -0.47980417   0.07296211
 H  -0.35635785   0.60005741  -0.04049400
 C   1.22143155  -0.86649739   0.27947920
 C  -1.11220305  -0.92811545   1.27226262
 H  -0.95726363  -2.00359332   1.38797937
 O   1.61433450  -1.99920278   0.04725733
 C  -0.69382448  -0.22697054   2.56524207
 H  -0.80500300   0.85876506   2.45488161
 H  -1.33736138  -0.54825293   3.38703646
 H   0.33768383  -0.44125583   2.84901974
 C  -2.59347246  -0.66788273   0.99130381
 H  -2.74203591   0.37383774   0.70403667
 H  -2.96889244  -1.30080514   0.18997983
 H  -3.18536893  -0.87414121   1.88411033
 N   2.03628263   0.12824820   0.74683292
 H   1.59397988   0.92688096   1.18052751
 C   3.30638860  -0.19257595   1.37212831
 H   3.33369195  -1.26162241   1.60301583
 C   3.38624459   0.63500031   2.65966280
 C   4.48737804   0.12793116   0.44074162
 H   5.41811620  -0.01928361   0.99985418
 O   2.54745574   1.47735178   2.94154553
 C   4.47333237  -0.75724359  -0.78773547
 H   4.50915584  -1.81548836  -0.51292042
 H   3.55737190  -0.58527645  -1.35257557
 H   5.32454595  -0.51806587  -1.42671311
 O   4.47164371   1.49039315   0.06419068
 H   3.60541828   1.64870442  -0.32447020
 N   4.44227698   0.33815643   3.44661123
 H   5.19097821  -0.23685670   3.08953727
 C   4.84514816   1.17027596   4.56949652
 H   4.34753825   2.14214549   4.48824787
 C   6.35999748   1.31400931   4.41348288
 C   4.43825380   0.53858892   5.91655790
 H   4.87221958  -0.46459443   5.92802070
 O   7.02249890   0.42713311   3.90793822
 C   4.95276710   1.31553675   7.12779379
 H   4.54234223   2.33173231   7.12125627
 H   6.04027509   1.38444889   7.16718677
 H   4.61189402   0.82793430   8.04488394
 C   2.91691003   0.42830741   6.00745284
 H   2.48058184   1.43064940   6.04591410
 H   2.62921767  -0.10702083   6.91379074
 H   2.48959432  -0.09214833   5.15193850
 N   6.90834725   2.49080411   4.83457775
 H   6.37676841   3.04264139   5.49190883
 C   8.34090761   2.59275974   4.98783246
 H   8.82080166   2.00862327   4.20594346
 C   8.76145572   2.02377586   6.39060351
 C   8.80276086   4.03847237   4.98715322
 H   8.22513282   4.58408028   5.74134355
 H   8.58709832   4.49035366   4.01742242
 O   9.66335560   1.17702868   6.38352569
 C   10.28773314   4.13231808   5.30633595
 H   10.48884070   3.58778603   6.23295203
 H   10.86559987   3.63561194   4.51776067
 C   10.76473253   5.56716554   5.43388034
 H   10.55598578   6.10925958   4.50860302
 H   10.21302328   6.06885116   6.23332525
 C   12.24434220   5.64872113   5.73496155
 H   12.79987823   5.15813272   4.93222579
 H   12.44858622   5.09271507   6.65317549
 N   12.71778096   7.04695223   5.88494493
 H   13.71656279   7.09876170   6.08772385
 H   12.54891737   7.58206773   5.03375273
 H   12.22565857   7.51891123   6.64279916
 O   8.13962857   2.51770958   7.35443875
 H   0.49595632  -3.67094668  -5.73891999
