21
conf-217
 N  -5.41864393  -0.51407450  -10.84452834
 H  -4.69225697  -0.96067112  -10.26068404
 H  -4.98028563  -0.01888480  -11.62199616
 H  -6.00990410  -1.26401901  -11.21369870
 C  -6.27450669   0.38989396  -10.03532598
 H  -5.66784173   1.24052090  -9.70685346
 C  -6.70097660  -0.42197381  -8.81588858
 C  -7.47270586   0.86550116  -10.82925455
 H  -8.07340551   1.56870044  -10.24783835
 H  -8.09792912   0.01311066  -11.09547623
 H  -7.14617966   1.36122313  -11.74660485
 O  -7.53689951  -1.31569763  -8.90877192
 N  -6.04510481  -0.14712946  -7.66579375
 H  -5.30336357   0.53533944  -7.63856858
 C  -6.00040731  -1.10976625  -6.58464605
 H  -7.02186112  -1.35164431  -6.28587908
 C  -5.24976128  -0.42678625  -5.44864198
 C  -5.30877688  -2.43201940  -6.98924163
 H  -5.95029655  -2.95168016  -7.69869612
 H  -5.16887470  -3.05926307  -6.10645691
 O  -4.50943815   0.52823861  -5.64699598
 C  -3.97849923  -2.15755898  -7.66086485
 N  -2.90172565  -2.14114256  -6.84137113
 H  -2.03297747  -1.86075358  -7.25208398
 H  -3.00301307  -2.17606752  -5.84442387
 O  -3.88492699  -1.94131594  -8.86070006
 N  -5.42370252  -0.97936216  -4.22604494
 H  -5.89934014  -1.86106897  -4.15259109
 C  -4.65828140  -0.49939273  -3.08816249
 H  -4.52930171   0.57266732  -3.25744909
 C  -3.27941314  -1.15123514  -3.08820043
 C  -5.35560060  -0.73335767  -1.75620578
 H  -5.58058543  -1.79024348  -1.62573461
 H  -4.65165920  -0.45568128  -0.96209596
 O  -3.01233773  -2.14068025  -2.40438680
 C  -6.61494405   0.10472785  -1.56610782
 H  -7.41869877  -0.22497735  -2.22396089
 H  -6.40228687   1.16038000  -1.73511813
 C  -7.02803312  -0.11435290  -0.09895063
 O  -6.52386019   0.69144347   0.70838593
 O  -7.77985937  -1.07131307   0.13716567
 N  -2.36821009  -0.59887614  -3.92528730
 H  -2.63761288   0.23927934  -4.42452337
 C  -0.94709365  -0.83355200  -3.68391441
 H  -0.86779749  -1.90201832  -3.45757443
 C  -0.50409422  -0.05337125  -2.44352624
 C  -0.09524049  -0.49860575  -4.89147027
 H  -0.20302175   0.56493446  -5.11026217
 H  -0.49274655  -1.05458202  -5.74855637
 O   0.09706091   1.01498234  -2.49089606
 C   1.38932442  -0.83689609  -4.70726418
 H   1.71926382  -0.31377370  -3.79818932
 C   1.62947425  -2.32759327  -4.50605038
 H   1.43295983  -2.87687627  -5.43101373
 H   0.99795345  -2.74807144  -3.72080856
 H   2.67093573  -2.50180164  -4.21769073
 C   2.19599071  -0.31297222  -5.88882510
 H   1.83321207  -0.74384722  -6.82497818
 H   2.12554352   0.77410836  -5.96277279
 H   3.25306968  -0.57546397  -5.79497799
 N  -0.89807026  -0.59826789  -1.26548633
 H  -1.28627975  -1.52980525  -1.29138694
 C  -0.21750238  -0.19398646  -0.05777997
 H  -0.38603227   0.88016982   0.06727728
 C   1.28886162  -0.42998885  -0.24118459
 C  -0.75132801  -0.95939722   1.14802688
 H  -0.40352855  -1.99334805   1.08596729
 H  -0.30823940  -0.53338629   2.05214005
 O   1.73064434  -1.35911540  -0.92018420
 C  -2.27755579  -0.96188334   1.29642580
 H  -2.69635079  -1.51517233   0.44652660
 C  -2.66329030  -1.69976821   2.57522702
 H  -2.25871259  -1.18050085   3.44735878
 H  -2.27485706  -2.72092897   2.57896240
 H  -3.74868004  -1.75255261   2.68781655
 C  -2.86662070   0.44278933   1.28738983
 H  -2.47057240   1.02894749   2.12156067
 H  -2.63188602   0.97042984   0.35697657
 H  -3.95515101   0.40680309   1.38827696
 N   2.07002250   0.47417229   0.40319558
 H   1.66356346   1.08746259   1.08996264
 C   3.50997818   0.33963412   0.46200636
 H   3.77573535  -0.61939661   0.01928469
 C   3.90704586   0.35615417   1.93036585
 C   4.23259917   1.45830606  -0.32190262
 H   3.88516474   2.40772873   0.10612951
 O   3.34509192   1.10055052   2.73556494
 C   3.83013214   1.46581050  -1.80441173
 H   2.74325988   1.55459737  -1.88517824
 H   4.23821794   2.37571389  -2.25287903
 C   5.75423888   1.39178516  -0.17286093
 H   6.13259258   0.38131031  -0.35853248
 H   6.08179443   1.70221510   0.82188176
 H   6.22533779   2.06410386  -0.89581253
 C   4.31081134   0.25722380  -2.59859499
 H   3.95206139   0.29206769  -3.63160617
 H   3.93461793  -0.67492107  -2.16001756
 H   5.40054861   0.20505158  -2.62679519
 N   4.94101925  -0.43007392   2.28543983
 H   5.51005561  -0.87983787   1.57803591
 C   5.56247269  -0.31432339   3.59935320
 H   4.74863474  -0.14807019   4.30429839
 C   6.50522016   0.90480386   3.62213734
 C   6.28589307  -1.61662380   3.94394846
 H   5.56707030  -2.42956521   3.83850874
 H   6.63169954  -1.60672934   4.97895493
 O   7.73603348   0.82759748   3.51295887
 C   7.42181434  -1.89094765   2.97651973
 N   8.59584894  -2.26110797   3.54546724
 H   8.74656352  -2.14144910   4.52929489
 H   9.39895522  -2.32628862   2.94427217
 O   7.27046007  -1.79822271   1.76773517
 N   5.87899894   2.10346954   3.74384861
 H   4.86774401   2.13159040   3.72634299
 C   6.63656426   3.33910949   3.55607051
 H   7.33218222   3.15960862   2.72651885
 C   7.45319635   3.61399605   4.82907468
 C   5.74270836   4.52939333   3.18477702
 H   5.10598162   4.73326938   4.04614540
 O   7.07327433   4.34930106   5.72923250
 C   6.59293040   5.76557733   2.87867033
 H   7.23687843   5.56626975   2.01929040
 H   5.95118463   6.61492603   2.63696677
 H   7.22141285   6.04087837   3.72604324
 C   4.86980774   4.21080509   1.97631542
 H   5.49147085   3.90732161   1.12591913
 H   4.29790244   5.09079432   1.67918423
 H   4.15896395   3.41024494   2.18324631
 N   8.66050459   2.99290906   4.89196832
 H   8.81845693   2.20328546   4.27837127
 C   9.43149755   3.07859524   6.11830009
 H   8.78855694   2.85400527   6.97738009
 C   9.95101461   4.48567020   6.35094177
 C   10.58078559   2.07218990   6.05167195
 H   11.24467058   2.35814422   5.23376232
 H   10.14444250   1.10201848   5.79369576
 O   9.95060919   5.04694365   7.41956014
 C   11.35895948   1.94893593   7.35062380
 H   10.66539048   1.67302378   8.15174822
 H   11.78626128   2.91399032   7.63281509
 C   12.45765624   0.90546786   7.26416327
 H   12.02912094  -0.05696642   6.97186212
 H   13.17093836   1.18873037   6.48567768
 C   13.20060736   0.73462077   8.57022546
 H   13.62511326   1.69608195   8.86863892
 H   12.49276688   0.44010349   9.34879710
 N   14.28276751  -0.27708513   8.47776851
 H   14.78619897  -0.38873907   9.35842013
 H   14.96388842  -0.01730005   7.76517428
 H   13.90775276  -1.18952951   8.22068295
 O   10.47626025   5.03798590   5.23767245
 H   10.79780587   5.90912065   5.50134472
