21
conf-535
 N  -10.15813467  -5.76014605  -6.46780814
 H  -9.94262387  -6.35092636  -7.27198370
 H  -11.11384874  -5.92671489  -6.16276411
 H  -9.50443538  -6.01201924  -5.72064107
 C  -9.91202844  -4.33182168  -6.75730133
 H  -10.15913339  -4.11943982  -7.80041811
 C  -8.42432266  -4.08284401  -6.54270798
 C  -10.73613442  -3.43134502  -5.84827045
 H  -10.54618302  -2.37923138  -6.06432453
 H  -10.48293089  -3.61288191  -4.80011741
 H  -11.80423738  -3.62297444  -5.98037180
 O  -7.76120917  -4.80313765  -5.79956599
 N  -7.89305483  -3.02374628  -7.19004259
 H  -8.49217868  -2.39408289  -7.69442295
 C  -6.49020562  -2.67854912  -7.02223250
 H  -5.98843915  -3.63248650  -6.85681722
 C  -6.32319408  -1.80532456  -5.77776613
 C  -5.93526174  -2.00624006  -8.25718756
 H  -6.25352343  -0.96384452  -8.31040197
 H  -6.31242942  -2.50742309  -9.14677805
 O  -6.08287656  -0.61187609  -5.83119264
 C  -4.42730251  -2.02475479  -8.42092139
 N  -3.65858408  -2.60429285  -7.45448648
 H  -2.67586738  -2.50842969  -7.62977126
 H  -3.92541344  -2.69788230  -6.48172471
 O  -3.93329911  -1.57288891  -9.43844702
 N  -6.46266245  -2.46986269  -4.59868364
 H  -6.56967989  -3.47400437  -4.64330663
 C  -5.80179692  -1.93662855  -3.41653669
 H  -6.07871228  -0.89024795  -3.32646390
 C  -4.26996447  -2.04296296  -3.60546849
 C  -6.24221009  -2.72849400  -2.17785269
 H  -7.33473328  -2.71838319  -2.16529311
 H  -5.91653532  -3.76423205  -2.32321587
 O  -3.75254627  -2.97466867  -4.23662650
 C  -5.70642740  -2.22659980  -0.83387074
 H  -4.61167205  -2.29111807  -0.82259633
 H  -6.09891030  -2.83141070  -0.01777596
 C  -6.12715110  -0.75716108  -0.59506856
 O  -5.55307799   0.08837826  -1.31848637
 O  -6.99538825  -0.55777364   0.26443695
 N  -3.57681770  -1.05132529  -3.01397294
 H  -4.09438922  -0.41140122  -2.40830321
 C  -2.12225218  -1.08872660  -2.99260067
 H  -1.82698975  -2.13207437  -2.84096940
 C  -1.68148027  -0.22662406  -1.82848858
 C  -1.51666881  -0.58480677  -4.30094136
 H  -1.93033696   0.40308676  -4.50546829
 H  -1.87094893  -1.25914628  -5.08745808
 O  -2.01088375   0.96185064  -1.76411942
 C   0.01413212  -0.49185201  -4.31531449
 H   0.31393991   0.18209615  -3.50234209
 C   0.67710555  -1.84707252  -4.08612077
 H   0.34710691  -2.56217694  -4.84559923
 H   0.44210650  -2.26136432  -3.10558237
 H   1.76490872  -1.76071036  -4.14556695
 C   0.47832586   0.11765641  -5.63561316
 H   0.19630621  -0.52940250  -6.46934143
 H   0.02771175   1.09926558  -5.79567232
 H   1.56347906   0.23781694  -5.64977932
 N  -0.94121474  -0.87494839  -0.89244446
 H  -0.49387293  -1.73735378  -1.16054557
 C  -0.27181943  -0.18062887   0.18138339
 H  -0.54683034   0.87101932   0.10354899
 C   1.23631840  -0.34131508  -0.04538225
 C  -0.68598107  -0.70786559   1.55333832
 H  -0.24384734  -1.69687321   1.70563876
 H  -0.25838004  -0.05043927   2.31469387
 O   1.69382353  -1.20507754  -0.78128787
 C  -2.19864016  -0.80446206   1.77463713
 H  -2.59664078  -1.52812977   1.05625242
 C  -2.47256194  -1.33392977   3.17813509
 H  -2.07159919  -0.64466810   3.92540443
 H  -2.00657650  -2.31024361   3.33059190
 H  -3.54511085  -1.43993744   3.35851006
 C  -2.90661853   0.52685561   1.55207149
 H  -2.57271504   1.25840974   2.29420359
 H  -2.71648279   0.93675343   0.56259218
 H  -3.99122178   0.41099200   1.65734588
 N   2.01700813   0.51811287   0.64804791
 H   1.63127532   1.15070259   1.33243087
 C   3.46553178   0.42035828   0.63553270
 H   3.73216024  -0.64175235   0.64418757
 C   3.93583972   1.10101651   1.91691732
 C   4.08320674   1.04315060  -0.64984059
 H   3.45649941   0.64376175  -1.45247190
 O   3.25331048   1.94562037   2.47870223
 C   5.51503233   0.56404567  -0.90510925
 H   6.19979424   1.10474850  -0.24987467
 H   5.59386993  -0.49670503  -0.62871119
 C   4.00245704   2.56984684  -0.65469439
 H   4.72813631   2.99302595   0.04172274
 H   3.00700781   2.90675644  -0.35788419
 H   4.21844675   2.96579777  -1.64828877
 C   5.94923873   0.72492077  -2.35722222
 H   6.97851762   0.39205085  -2.49748724
 H   5.88891571   1.76608584  -2.67980688
 H   5.31110324   0.13606719  -3.02047796
 N   5.15826651   0.73865079   2.37399491
 H   5.78603605   0.19352415   1.80073248
 C   5.79660603   1.51490231   3.41997896
 H   5.02615031   1.73066177   4.16263127
 C   6.31099447   2.84684586   2.85512997
 C   6.92377704   0.71695435   4.08002740
 H   6.48480071  -0.18358614   4.51307743
 H   7.36783535   1.29529198   4.89225389
 O   6.87870017   2.92475986   1.77629247
 C   7.99850471   0.25228446   3.10980427
 N   9.27244937   0.37557256   3.55356431
 H   9.48769312   0.72185054   4.46916317
 H   10.01354127   0.03710325   2.96382340
 O   7.73030543  -0.23849715   2.02191865
 N   6.07944406   3.93328361   3.63604582
 H   5.85719554   3.82450168   4.61370195
 C   6.65631486   5.21844909   3.31728741
 H   7.45931137   5.05177630   2.59683728
 C   7.22083742   5.78459794   4.62295554
 C   5.64877441   6.19870246   2.67481057
 H   6.22847115   7.10283893   2.45350207
 O   6.87528047   5.36713431   5.71596323
 C   5.10598607   5.65015050   1.35698089
 H   4.42641835   4.81149495   1.53704489
 H   4.54190030   6.42676968   0.83769903
 H   5.91337994   5.31306988   0.70447119
 C   4.50715138   6.56673760   3.61931486
 H   3.89271284   5.68559068   3.82001001
 H   3.86973419   7.32749150   3.16383286
 H   4.88106028   6.94367025   4.57440156
 N   8.07887566   6.81985093   4.48257124
 H   8.34007028   7.17010152   3.57455291
 C   8.63034944   7.49088938   5.64419385
 H   7.83501803   7.60899006   6.38715869
 C   9.10640866   8.84758754   5.18554348
 C   9.76000009   6.66378656   6.28289580
 H   10.60152744   6.60492143   5.58894338
 H   9.35612003   5.65432535   6.38205396
 O   9.38763663   9.13443985   4.04906191
 C   10.21362478   7.18179412   7.63961430
 H   9.33724282   7.28491891   8.29029974
 H   10.64530192   8.18092883   7.53965225
 C   11.22964680   6.27067177   8.31542563
 H   12.07960233   6.10176674   7.64441396
 H   11.62405026   6.76687542   9.20718454
 C   10.66282881   4.92882017   8.73089261
 H   9.78842566   5.08647482   9.36755110
 H   10.32597050   4.38106198   7.84856761
 N   11.66275311   4.09898113   9.44910395
 H   11.28694359   3.19132950   9.72394327
 H   11.98513152   4.56807640   10.29406396
 H   12.47934298   3.92921542   8.86378950
 O   9.20416054   9.71913243   6.20937712
 H   9.55315465   10.53846464   5.83712387
