21
conf-196
 N  -7.62576942   2.52694011  -8.32685622
 H  -8.00454887   1.86686526  -9.00751744
 H  -8.07836647   3.43138012  -8.43394061
 H  -7.81995669   2.15058114  -7.39445379
 C  -6.15429407   2.63190159  -8.42363706
 H  -5.84942526   2.55321511  -9.47007128
 C  -5.56904396   1.45898533  -7.64488907
 C  -5.65983932   3.95065999  -7.84599564
 H  -4.57390729   4.03098603  -7.91329448
 H  -5.94134909   4.03070289  -6.79267232
 H  -6.10094316   4.79557313  -8.38158595
 O  -6.19196148   0.94388164  -6.71988139
 N  -4.33015234   1.06258152  -7.99904715
 H  -3.85694556   1.54173893  -8.74587380
 C  -3.67619080  -0.07683120  -7.36617721
 H  -4.46208072  -0.78656681  -7.09433256
 C  -2.95225734   0.33815955  -6.08187571
 C  -2.70505002  -0.75343828  -8.32609227
 H  -1.87191254  -0.09264446  -8.56977698
 H  -3.23759867  -0.99858442  -9.24450812
 O  -1.75868973   0.12074084  -5.90617700
 C  -2.22401324  -2.06504690  -7.74173310
 N  -0.90660221  -2.34471429  -7.93655146
 H  -0.55200419  -3.16350448  -7.47382317
 H  -0.27073872  -1.61040853  -8.18462371
 O  -2.99294973  -2.83953765  -7.19155654
 N  -3.71343916   0.96365336  -5.14594384
 H  -4.71801747   0.90987707  -5.24882850
 C  -3.20057356   1.07857008  -3.79309186
 H  -2.20355558   1.52171942  -3.85385017
 C  -3.10022065  -0.31980679  -3.17304283
 C  -4.12408101   1.97676626  -2.96250840
 H  -4.30276360   2.88959385  -3.53217650
 H  -5.08309012   1.47372525  -2.82538115
 O  -4.00788665  -1.14027892  -3.29585564
 C  -3.57268364   2.36570255  -1.58913715
 H  -2.61998764   2.89081937  -1.68726836
 H  -3.46148765   1.49509118  -0.93897366
 C  -4.63594061   3.32588957  -1.00310132
 O  -5.56325703   2.77496315  -0.38805516
 O  -4.45918361   4.53289804  -1.24132894
 N  -1.94155704  -0.54946477  -2.50040322
 H  -1.38791848   0.23523207  -2.19792298
 C  -1.73306776  -1.74900490  -1.72832610
 H  -2.65995316  -2.31922865  -1.76330743
 C  -1.42855156  -1.31540450  -0.29940657
 C  -0.59304294  -2.60933298  -2.26799324
 H  -0.56456621  -3.53764134  -1.69165784
 H   0.35540561  -2.10015036  -2.08250748
 O  -0.98745649  -0.19883865  -0.04708975
 C  -0.65488268  -2.94578330  -3.75938897
 H  -0.64761530  -2.00786703  -4.32162965
 C   0.59450710  -3.74106546  -4.12666974
 H   0.62247315  -4.68112149  -3.57063615
 H   1.49604168  -3.17362759  -3.88091183
 H   0.62131107  -3.97907853  -5.19286524
 C  -1.92568031  -3.70619917  -4.11710034
 H  -1.96150694  -4.65918887  -3.58183908
 H  -2.81540185  -3.13335996  -3.85930801
 H  -1.96588756  -3.91045902  -5.19085655
 N  -1.64564916  -2.24943375   0.65465851
 H  -1.81532258  -3.19530271   0.36048158
 C  -1.22834292  -2.03797078   2.04059280
 H  -1.46645894  -0.99789541   2.26169232
 C   0.28445304  -2.24810280   2.13483150
 C  -2.00206123  -2.97162655   2.95580694
 H  -3.06449673  -2.81386810   2.75655939
 H  -1.76181334  -4.00074103   2.67830305
 O   0.79135317  -3.32132072   2.45600379
 C  -1.75328988  -2.78516854   4.45582007
 H  -0.68823124  -2.96033234   4.63672369
 C  -2.10816590  -1.37969979   4.92636280
 H  -3.17259319  -1.18296726   4.76393689
 H  -1.53474763  -0.61148973   4.40279839
 H  -1.90842086  -1.27344649   5.99552394
 C  -2.54836969  -3.82990645   5.23555758
 H  -3.61916513  -3.69787368   5.06332902
 H  -2.27485323  -4.84196966   4.93053086
 H  -2.36493900  -3.74072865   6.30870436
 N   1.03370661  -1.16940724   1.80664123
 H   0.60063898  -0.36052551   1.37496067
 C   2.47509914  -1.28688296   1.71727460
 H   2.77658048  -2.02005549   2.47151437
 C   3.09247304   0.06192156   2.05384918
 C   2.93782529  -1.82746479   0.34230929
 H   2.44416411  -2.80200802   0.25951216
 O   2.67124994   1.10872273   1.57166183
 C   4.45042788  -2.05481491   0.27636618
 H   4.67403930  -2.38514553  -0.74349437
 H   4.95622605  -1.09370138   0.40963620
 C   2.51163275  -0.95162709  -0.83333162
 H   3.09212340  -0.03115668  -0.83990500
 H   1.45494847  -0.68735986  -0.78212998
 H   2.69618287  -1.47474629  -1.77697110
 C   4.98596478  -3.08651494   1.25814790
 H   6.03804192  -3.30262174   1.05947110
 H   4.43380525  -4.02746583   1.18371788
 H   4.91910746  -2.73589901   2.29039076
 N   4.13150328   0.04251394   2.92018239
 H   4.62351818  -0.82290058   3.10033858
 C   4.93766935   1.23315274   3.10863183
 H   4.25030307   2.05110659   3.33522671
 C   5.68472819   1.57778308   1.82150081
 C   5.90369852   1.03395175   4.27731412
 H   5.30795590   0.86375331   5.17527512
 H   6.50009595   1.93426335   4.43447429
 O   6.31828628   0.74277239   1.18826686
 C   6.81115065  -0.17564378   4.12271085
 N   8.08867134   0.00317506   4.53146539
 H   8.40046344   0.86017683   4.94870316
 H   8.71652689  -0.78145590   4.49562000
 O   6.40919142  -1.24919924   3.68991190
 N   5.58535552   2.86520724   1.42654648
 H   5.08569555   3.53954798   1.98320938
 C   6.29296864   3.36867333   0.26505971
 H   7.07592232   2.64793288   0.02528840
 C   6.89040575   4.71044596   0.66502034
 C   5.36948656   3.51764979  -0.96234254
 H   4.60349593   4.24466347  -0.68546101
 O   6.21174429   5.56398720   1.21132086
 C   6.12815282   4.04803572  -2.18005860
 H   6.91272193   3.33824910  -2.46585177
 H   5.44505086   4.15169046  -3.02604623
 H   6.58872098   5.02085802  -1.99754360
 C   4.69514790   2.19061368  -1.30065074
 H   5.45374972   1.42147116  -1.46934947
 H   4.10855053   2.30574296  -2.21360786
 H   4.02747612   1.85445630  -0.51142996
 N   8.21397293   4.87950810   0.38559550
 H   8.63922517   4.22852640  -0.25608542
 C   8.80954536   6.20410696   0.43391265
 H   8.26215160   6.78101777   1.17923587
 C   8.67893752   6.87763916  -0.91295893
 C   10.28753040   6.09778203   0.81953534
 H   10.80429308   5.50691521   0.05890076
 H   10.33205404   5.53324971   1.75236376
 O   8.77280671   6.31420149  -1.98025136
 C   10.98310841   7.43692602   1.00394895
 H   10.41969706   8.04191471   1.72230565
 H   10.97709407   7.98988892   0.06310422
 C   12.40644575   7.26044865   1.50802811
 H   12.38645005   6.66484460   2.42677624
 H   12.98920292   6.69349729   0.77566781
 C   13.11655243   8.56633096   1.80974099
 H   12.49529135   9.15951022   2.48656419
 H   14.05661577   8.37150504   2.32883965
 N   13.39001946   9.36427565   0.58677755
 H   13.83077880   10.25897100   0.80143350
 H   12.52716301   9.56378871   0.08264683
 H   14.00193590   8.86005395  -0.05471062
 O   8.50138477   8.20857686  -0.80420983
 H   8.48429949   8.55247700  -1.70588162
