21
conf-102
 N  -9.28293642  -7.28954481  -3.16262190
 H  -9.09020812  -8.12028787  -3.72368266
 H  -10.16293924  -7.40517385  -2.66583596
 H  -8.51586476  -7.19127505  -2.49180618
 C  -9.27065605  -6.06140642  -3.98283812
 H  -9.70704246  -6.27452962  -4.96554306
 C  -7.81099822  -5.65557909  -4.16634105
 C  -10.04613675  -4.93924932  -3.30886273
 H  -10.03245538  -4.03263842  -3.91560890
 H  -9.60374317  -4.70445962  -2.33726174
 H  -11.08663014  -5.23366265  -3.14947123
 O  -6.96027963  -6.00629527  -3.35011928
 N  -7.53882721  -4.85968063  -5.22489186
 H  -8.23948321  -4.80693127  -5.95397866
 C  -6.16115124  -4.65805134  -5.67235941
 H  -5.60180597  -5.56394479  -5.40068587
 C  -5.54722335  -3.45742860  -4.94267110
 C  -6.11119744  -4.42568457  -7.18208632
 H  -5.07422204  -4.39412042  -7.51243919
 H  -6.55980478  -3.45912002  -7.40951363
 O  -5.15480650  -2.45157298  -5.53391019
 C  -6.90856374  -5.48207454  -7.92060050
 N  -6.18878473  -6.36730708  -8.65289738
 H  -6.69418206  -7.11206448  -9.10095489
 H  -5.18710004  -6.39027763  -8.61384179
 O  -8.12891866  -5.50890221  -7.87665443
 N  -5.46996960  -3.56454393  -3.60177042
 H  -5.77022045  -4.42298117  -3.15668006
 C  -4.91299910  -2.48129152  -2.81531194
 H  -5.16203940  -1.56043225  -3.35593799
 C  -3.39216840  -2.60738434  -2.76903563
 C  -5.51259261  -2.41936038  -1.41576171
 H  -6.60049834  -2.43239452  -1.50606941
 H  -5.20978102  -3.30650983  -0.85845706
 O  -2.77720994  -2.94301274  -1.76978408
 C  -5.08972537  -1.14980583  -0.67578398
 H  -5.39556867  -0.26942730  -1.24797204
 H  -4.01495522  -1.10462256  -0.52830092
 C  -5.81791366  -1.04156296   0.69745451
 O  -5.10366513  -0.80149923   1.68515401
 O  -7.04531914  -1.17915882   0.64284708
 N  -2.73816920  -2.36276521  -3.93408494
 H  -3.26450036  -1.95975267  -4.69698243
 C  -1.33086292  -2.03376670  -3.78624688
 H  -0.82387116  -2.93003726  -3.42187864
 C  -1.22548756  -0.93597720  -2.73002520
 C  -0.73256500  -1.57502708  -5.11357982
 H  -1.31328083  -0.71974120  -5.46857121
 H  -0.87476450  -2.38198272  -5.83788058
 O  -1.99633578   0.02059651  -2.72160951
 C   0.74817884  -1.18738828  -5.08454038
 H   0.88287704  -0.37265919  -4.35939293
 C   1.64364555  -2.35121559  -4.67688865
 H   1.53175043  -3.17680722  -5.38533201
 H   1.42062338  -2.72884724  -3.67702497
 H   2.69388733  -2.04530385  -4.68031476
 C   1.15950771  -0.66488112  -6.45784032
 H   1.03548213  -1.44473753  -7.21214797
 H   0.55831181   0.19725732  -6.75358335
 H   2.20896234  -0.36036302  -6.45724591
 N  -0.23682015  -1.12277492  -1.82127860
 H   0.37830942  -1.91328653  -1.90959842
 C   0.19669579  -0.08242461  -0.92069894
 H  -0.33049616   0.82844831  -1.20842234
 C   1.70194427   0.11659386  -1.12423825
 C  -0.12041347  -0.41860434   0.53389188
 H   0.40065267  -1.34264263   0.79184897
 H   0.28422465   0.36572819   1.17834587
 O   2.42810568  -0.80196299  -1.48859921
 C  -1.61754127  -0.57575508   0.81979404
 H  -2.01343357  -1.30447724   0.11070230
 C  -1.85332773  -1.10762983   2.22933165
 H  -1.43811401  -0.41524689   2.96587149
 H  -1.37328916  -2.07953245   2.36348349
 H  -2.91637971  -1.22158509   2.42874170
 C  -2.36409730   0.74170422   0.62152591
 H  -1.98362235   1.49431821   1.31734579
 H  -2.25324978   1.11196450  -0.40072081
 H  -3.42932628   0.60885597   0.80979211
 N   2.15654655   1.36345311  -0.84387371
 H   1.55475806   2.02508957  -0.37944450
 C   3.56962519   1.69732930  -0.83048546
 H   4.13479525   0.77163601  -0.91725900
 C   3.85478613   2.38183807   0.50304951
 C   3.95839764   2.62539076  -2.00914055
 H   3.34388727   3.52571268  -1.89394587
 O   3.08591035   3.20512907   0.97125022
 C   3.60268693   2.01407332  -3.37248079
 H   2.53516532   1.77530447  -3.38952342
 H   3.74613404   2.79206006  -4.12829305
 C   5.43573158   3.03471106  -1.96798642
 H   6.08296508   2.14998458  -1.97342379
 H   5.69474727   3.63606042  -1.09301312
 H   5.68277144   3.62736428  -2.85276696
 C   4.41283376   0.78269658  -3.75953836
 H   4.01864340   0.33129960  -4.67316494
 H   4.38127840   0.01840738  -2.97931265
 H   5.45936396   1.03505858  -3.93940115
 N   5.02685435   2.02965083   1.11512101
 H   5.70007104   1.52271914   0.56189117
 C   5.57314415   2.86005398   2.17810634
 H   4.73519741   3.40060393   2.60819421
 C   6.60561823   3.87958653   1.65362084
 C   6.26842593   2.03026653   3.25528100
 H   7.26697393   1.76476853   2.87727149
 H   5.72292425   1.10642727   3.44574991
 O   7.45598243   3.56973911   0.79344532
 C   6.41513001   2.80498585   4.55267952
 N   7.33260895   2.31014761   5.43234741
 H   7.69068288   1.38093696   5.31190366
 H   7.35149823   2.72548635   6.34744967
 O   5.76282129   3.80939439   4.79540374
 N   6.51876461   5.10416285   2.27525468
 H   6.02255635   5.08181176   3.15984711
 C   7.62500823   6.05959789   2.20775509
 H   8.01152084   5.97260902   1.19013348
 C   8.67912141   5.60759692   3.22284521
 C   7.17656050   7.49452477   2.49146437
 H   6.84476112   7.52115943   3.53305754
 O   8.64035673   5.90673911   4.40884548
 C   8.35699294   8.45845773   2.32821375
 H   8.70124956   8.45418603   1.29110318
 H   8.05513223   9.47672052   2.58318666
 H   9.19217299   8.17351886   2.97136368
 C   6.02697954   7.92701816   1.58685921
 H   6.33571863   7.89227803   0.53858369
 H   5.73578469   8.95416850   1.81866898
 H   5.15086028   7.28958768   1.71092328
 N   9.64274888   4.79604892   2.71758791
 H   9.46687923   4.43903789   1.79187929
 C   10.38119554   3.93180055   3.60994947
 H   9.68938065   3.48516740   4.33573702
 C   11.38364232   4.76354287   4.38904501
 C   11.08559238   2.82532406   2.82842476
 H   11.81317134   2.34778171   3.48791122
 H   11.64646212   3.29245436   2.02054291
 O   11.87271627   5.80595479   4.04541212
 C   10.15499325   1.75439924   2.27667601
 H   9.42700107   2.18693231   1.58052967
 H   9.57206280   1.33241652   3.10531510
 C   10.93894571   0.64137773   1.59909924
 H   11.55618615   1.06850786   0.80218323
 H   11.62838204   0.19879441   2.32400670
 C   10.08154440  -0.46770240   1.01646978
 H   10.71822361  -1.21520373   0.53989777
 H   9.54407725  -0.97657436   1.82168853
 N   9.09707153   0.05001675   0.02871642
 H   8.79373980  -0.67140093  -0.62602781
 H   9.49256585   0.82335211  -0.50357999
 H   8.27394953   0.40516993   0.51080666
 O   11.71184064   4.14180484   5.54690922
 H   12.36613610   4.71105706   5.96946184
