21
conf-876
 N  -9.40669568  -4.57815895  -5.32740216
 H  -9.33055148  -5.08069281  -6.21329834
 H  -10.36005365  -4.65052399  -4.98021998
 H  -8.77380410  -5.02281333  -4.65772172
 C  -8.98105406  -3.16826058  -5.45036797
 H  -9.38872993  -2.74279874  -6.36818865
 C  -7.45815477  -3.13871273  -5.52287195
 C  -9.45342391  -2.37217353  -4.24247947
 H  -9.10432241  -1.33667445  -4.25780821
 H  -9.06144536  -2.85454483  -3.34165422
 H  -10.54373819  -2.38047596  -4.17786029
 O  -6.78246528  -3.93986576  -4.87741273
 N  -6.91863680  -2.16564597  -6.28672259
 H  -7.51429799  -1.47728357  -6.70791485
 C  -5.47403958  -1.96781697  -6.39107789
 H  -5.01938713  -2.95982963  -6.39846181
 C  -4.98857542  -1.17225325  -5.17663861
 C  -5.11902182  -1.22874134  -7.67403591
 H  -4.07763207  -0.91443397  -7.62773400
 H  -5.71780235  -0.32537466  -7.77731901
 O  -4.70923398   0.02922224  -5.24832022
 C  -5.23692773  -2.14000676  -8.88315323
 N  -5.64194493  -1.52851972  -10.02803118
 H  -5.70225709  -2.08872246  -10.86017631
 H  -5.82888700  -0.54490295  -10.07315137
 O  -4.94554434  -3.32080726  -8.83325313
 N  -4.90829603  -1.85258915  -4.01467611
 H  -5.25725485  -2.80363506  -3.98251704
 C  -4.61035836  -1.17770755  -2.76194677
 H  -5.02919817  -0.16502748  -2.83362009
 C  -3.09280988  -1.07325092  -2.57715257
 C  -5.26063332  -1.87986361  -1.57437538
 H  -4.92060532  -2.91258650  -1.51757420
 H  -4.93758296  -1.37332388  -0.66119668
 O  -2.48273615  -1.62884301  -1.66043077
 C  -6.77101279  -1.77843514  -1.68624377
 H  -7.26229819  -2.18439444  -0.79979883
 H  -7.14513188  -2.29533241  -2.57324955
 C  -7.10727223  -0.26737446  -1.75817191
 O  -7.78323398   0.10015683  -2.73340944
 O  -6.68886496   0.41148820  -0.81395173
 N  -2.44996737  -0.34365063  -3.51284036
 H  -2.99907226   0.15550183  -4.20288306
 C  -1.02032958  -0.12484649  -3.41353011
 H  -0.61138516  -1.04056729  -2.97399851
 C  -0.75259317   1.04301441  -2.46596993
 C  -0.39540314   0.07943227  -4.78173048
 H  -0.83940789   0.95619040  -5.25814229
 H  -0.66835247  -0.79397270  -5.38110914
 O  -0.44289245   2.16220783  -2.85095418
 C   1.13533153   0.22309233  -4.78732199
 H   1.38000092   1.23532643  -4.45776947
 C   1.80515304  -0.75839863  -3.82954376
 H   1.45418650  -1.77701361  -4.02278514
 H   1.59822399  -0.51549818  -2.78476238
 H   2.88851683  -0.74338592  -3.96454836
 C   1.64307911   0.04001173  -6.21480207
 H   1.45475443  -0.98104959  -6.55491091
 H   1.14137290   0.72660966  -6.90069054
 H   2.71743964   0.22648386  -6.27865854
 N  -0.92183840   0.75158061  -1.15049050
 H  -1.12042241  -0.20726061  -0.89939724
 C  -0.32336764   1.61159586  -0.14641380
 H  -0.53375835   2.63839465  -0.44809425
 C   1.19045868   1.40331699  -0.11897158
 C  -0.93374503   1.30729942   1.22163285
 H  -2.01886960   1.39411983   1.12882375
 H  -0.70973269   0.26331947   1.45644103
 O   1.69814848   0.29203464  -0.15191974
 C  -0.45504321   2.19125266   2.37628248
 H   0.63262653   2.13004906   2.41493173
 C  -0.85957929   3.64818291   2.18282012
 H  -1.94917888   3.73735350   2.14127670
 H  -0.45261647   4.07495620   1.26016062
 H  -0.50134410   4.26190844   3.01288854
 C  -1.01710254   1.65573594   3.69054567
 H  -2.10919814   1.68049211   3.67201405
 H  -0.70285067   0.62485667   3.86463498
 H  -0.67947493   2.25877179   4.53602098
 N   1.93386129   2.54686507  -0.06250144
 H   1.47580006   3.34873540   0.34049099
 C   3.36524646   2.43818480   0.18560467
 H   3.70819872   1.59647818  -0.41332616
 C   3.58582493   2.09853052   1.65755073
 C   4.10070719   3.72619636  -0.27203881
 H   3.48384153   4.13767541  -1.07924092
 O   2.87384561   2.53722675   2.55093092
 C   5.48966764   3.46401370  -0.86696557
 H   5.92985937   4.44753517  -1.07307925
 H   6.13250838   3.01194694  -0.10931416
 C   4.22017437   4.75872222   0.84818816
 H   4.99002268   4.45635579   1.55858100
 H   3.28567732   4.88263608   1.39195037
 H   4.51543047   5.72334418   0.43329755
 C   5.48318015   2.66724180  -2.16505983
 H   6.49360278   2.54915664  -2.56034889
 H   4.88853411   3.18121673  -2.92494281
 H   5.05726999   1.66882370  -2.03677221
 N   4.65724625   1.29041716   1.91075082
 H   5.30284326   1.16949809   1.14851590
 C   5.27062938   1.31207923   3.23231344
 H   4.47185896   1.40610166   3.95957076
 C   6.22992752   2.52523714   3.30852095
 C   6.07626734   0.03785934   3.48016794
 H   6.96381060   0.04827830   2.83648010
 H   5.46967730  -0.82306488   3.20195067
 O   6.81316106   2.89762952   2.26873789
 C   6.46853361  -0.10636795   4.94150549
 N   7.48464089  -0.96767841   5.20913639
 H   8.01153868  -1.40922175   4.47990211
 H   7.73743949  -1.08875546   6.17263898
 O   5.87750889   0.48890007   5.83423063
 N   6.38853509   3.05673364   4.55658170
 H   6.07409747   2.45987177   5.31032726
 C   7.50859760   3.94923464   4.85677652
 H   7.73468124   4.47335642   3.92510235
 C   8.73233279   3.10667206   5.25248079
 C   7.06995621   5.01697538   5.86477085
 H   6.26117086   5.53306907   5.33488972
 O   9.12239452   2.96871403   6.40364417
 C   6.49787397   4.46416320   7.16826243
 H   7.24400876   3.87396227   7.69896384
 H   6.19398723   5.29250240   7.81229548
 H   5.61661345   3.83922487   6.99677308
 C   8.18227198   6.03253482   6.13861752
 H   9.00605509   5.56039730   6.67337943
 H   7.80115413   6.85056686   6.75380772
 H   8.57233200   6.46037963   5.21261520
 N   9.34761612   2.46640123   4.22439368
 H   8.96400749   2.53764771   3.28972767
 C   10.42429908   1.53207173   4.49919277
 H   10.12376380   0.88496658   5.33228049
 C   11.68783161   2.23864453   4.95872189
 C   10.71013949   0.68457920   3.25623567
 H   11.18779240   1.31497468   2.50349004
 H   9.74446103   0.36883215   2.84560443
 O   12.41771883   1.82561053   5.82681674
 C   11.55853594  -0.54035067   3.55192734
 H   10.99602365  -1.19694644   4.22763768
 H   12.45849416  -0.23996639   4.09006430
 C   11.91567455  -1.31772806   2.29555791
 H   11.00043915  -1.55460578   1.74433956
 H   12.52558593  -0.69113783   1.63795113
 C   12.64712932  -2.61706893   2.57238944
 H   12.05782749  -3.20995549   3.27754462
 H   12.73265825  -3.20355325   1.65599127
 N   14.00208462  -2.40057051   3.14206221
 H   14.47038775  -3.27920972   3.36485996
 H   13.95239892  -1.85620828   4.00257590
 H   14.59772370  -1.88448742   2.49470329
 O   11.94964348   3.35845316   4.25748821
 H   12.77809036   3.70819087   4.60880660
