21
conf-962
 N  -9.19297680  -5.14418167  -4.88225109
 H  -9.44324955  -5.06931970  -5.86924114
 H  -9.90025167  -5.69838622  -4.40326529
 H  -8.29626921  -5.63217518  -4.82222691
 C  -9.03940491  -3.81611195  -4.25374031
 H  -9.88938899  -3.18907033  -4.52951441
 C  -7.77376484  -3.15150219  -4.78673354
 C  -8.97349684  -3.93907337  -2.73650058
 H  -8.87691453  -2.95656204  -2.27098287
 H  -8.11490637  -4.54697501  -2.43256472
 H  -9.88073340  -4.41204176  -2.35444766
 O  -6.80120352  -3.81642874  -5.14226338
 N  -7.76750140  -1.80254143  -4.76631594
 H  -8.56220189  -1.31673636  -4.39856375
 C  -6.59961101  -1.01248779  -5.15353066
 H  -6.10941403  -1.55695005  -5.96561862
 C  -5.62412181  -0.88703821  -3.97440761
 C  -7.00308707   0.37059833  -5.64722711
 H  -6.11063348   0.98983119  -5.73273786
 H  -7.66125538   0.86309613  -4.93147469
 O  -5.21970653   0.19741554  -3.55402885
 C  -7.62131603   0.29470849  -7.03310965
 N  -8.58070505   1.22472271  -7.28653109
 H  -8.99062149   1.23419319  -8.20408876
 H  -8.83866264   1.92551678  -6.61785215
 O  -7.24990721  -0.51349470  -7.86400194
 N  -5.24358697  -2.05235704  -3.41897815
 H  -5.51407103  -2.90621145  -3.88465420
 C  -4.49406767  -2.09773728  -2.17761563
 H  -4.74058164  -1.16511373  -1.65997152
 C  -2.99370782  -2.07710559  -2.46465329
 C  -4.93985161  -3.26987252  -1.30867108
 H  -4.31984973  -3.28282702  -0.40966892
 H  -5.96812003  -3.06224536  -0.99845235
 O  -2.22940122  -2.98025501  -2.12640403
 C  -4.90456329  -4.63171646  -1.98935710
 H  -3.89251160  -4.95804075  -2.21192946
 H  -5.47853464  -4.60360082  -2.92079288
 C  -5.60181081  -5.66396194  -1.06072026
 O  -6.77521343  -5.36116293  -0.76064039
 O  -4.95275658  -6.66737352  -0.73473849
 N  -2.56476163  -0.98867475  -3.13685235
 H  -3.22228757  -0.23552544  -3.31227466
 C  -1.16037523  -0.82462166  -3.47306943
 H  -0.78347264  -1.83739325  -3.62470633
 C  -0.42958005  -0.20859583  -2.28224217
 C  -0.99956262  -0.01884620  -4.75296259
 H  -1.32669267   1.00572228  -4.56263390
 H  -1.67967140  -0.44634220  -5.49417792
 O   0.00270915   0.94795755  -2.27921504
 C   0.41374725   0.00586070  -5.34477218
 H   1.08874766   0.40351517  -4.57645922
 C   0.89541761  -1.38403660  -5.74610355
 H   0.24063106  -1.80489402  -6.51523091
 H   0.91562056  -2.07454962  -4.90020217
 H   1.90640642  -1.33427002  -6.15766741
 C   0.44296067   0.95066933  -6.54372895
 H  -0.23533733   0.59453165  -7.32299353
 H   0.13612233   1.95950057  -6.26078924
 H   1.44578383   1.01233092  -6.97236235
 N  -0.32305333  -1.00516013  -1.19642997
 H  -0.65928249  -1.95907001  -1.24215127
 C   0.44944264  -0.56307660  -0.05682899
 H   0.29527695   0.51952281  -0.01080708
 C   1.92755887  -0.83493034  -0.31866811
 C  -0.01570044  -1.17293190   1.24987500
 H  -1.08413318  -0.96541795   1.34714626
 H   0.11483889  -2.25676208   1.21622458
 O   2.53298517  -1.79991716   0.12729730
 C   0.72352895  -0.61258915   2.47525384
 H   1.75924675  -0.95636556   2.41886916
 C   0.72962549   0.91415904   2.50431040
 H  -0.28688531   1.31051565   2.43007776
 H   1.32630502   1.33370233   1.68691108
 H   1.16815667   1.26867787   3.43952208
 C   0.09144587  -1.17646977   3.74592839
 H  -0.94406639  -0.84035061   3.83746604
 H   0.09941213  -2.26850029   3.73641380
 H   0.63785269  -0.84269089   4.63011334
 N   2.51465618   0.10282879  -1.11369409
 H   1.91487248   0.86431400  -1.38142929
 C   3.90898461   0.44948915  -0.85866431
 H   4.44029722  -0.49542072  -0.75488392
 C   4.00016144   1.20914687   0.49313629
 C   4.50193445   1.23159665  -2.05047504
 H   4.51028246   0.51209898  -2.87483742
 O   3.29058131   2.20582990   0.73363624
 C   5.93666437   1.68698601  -1.77715787
 H   6.24196230   2.33722820  -2.60131918
 H   5.91689680   2.31132431  -0.87628831
 C   3.65597589   2.43501066  -2.46761079
 H   3.53420387   3.11125958  -1.61880573
 H   2.66669082   2.13575557  -2.82006236
 H   4.14737484   2.97454580  -3.27659945
 C   6.95379373   0.56163872  -1.64638985
 H   7.95769926   0.96099128  -1.48971564
 H   6.97332151  -0.05341087  -2.54956950
 H   6.73538827  -0.09597429  -0.80050281
 N   4.86535082   0.63830388   1.39602521
 H   5.45780042  -0.10547396   1.07324366
 C   5.30592673   1.34925383   2.59053306
 H   4.43937202   1.89581146   2.96850874
 C   6.42948876   2.32416523   2.22424972
 C   5.83571929   0.38279122   3.64710567
 H   6.26204901   0.95058112   4.47553049
 H   6.63712864  -0.22652714   3.23377458
 O   7.42179875   1.95537423   1.59766907
 C   4.75302961  -0.49415078   4.25937048
 N   5.15427575  -1.74301133   4.61252738
 H   6.10318861  -2.04592893   4.50648734
 H   4.48293987  -2.34008162   5.06018553
 O   3.61696298  -0.09321593   4.45708425
 N   6.27809168   3.59198084   2.66323597
 H   5.54055359   3.84923342   3.30219323
 C   7.34954095   4.56239573   2.52991283
 H   8.29846510   4.03897684   2.69729165
 C   7.10455614   5.60367295   3.62335884
 C   7.41384205   5.16842777   1.10395903
 H   7.34371620   4.29472420   0.45012361
 O   6.01635646   5.73203813   4.15958533
 C   6.24075230   6.10336815   0.81959575
 H   6.31806558   7.00555541   1.43159211
 H   6.24319910   6.40244979  -0.23079032
 H   5.28580268   5.62038056   1.04231230
 C   8.74404532   5.85390639   0.80699503
 H   8.84559104   6.80135329   1.34210152
 H   8.80992873   6.07106681  -0.26190941
 H   9.58944519   5.20926270   1.06537482
 N   8.16062450   6.39764234   3.91150249
 H   9.01884672   6.33609734   3.39242811
 C   8.03079531   7.54253571   4.78773347
 H   7.10845942   8.07709967   4.53887969
 C   9.20169756   8.44695490   4.49391202
 C   7.94907091   7.15977234   6.27148740
 H   7.07440493   6.51603943   6.37474352
 H   7.75023554   8.07013157   6.84016650
 O   10.09918343   8.17973209   3.73339010
 C   9.18141011   6.46007960   6.81835396
 H   10.04822103   7.12429425   6.76036254
 H   9.41614137   5.58642050   6.20957211
 C   8.98033797   6.02163188   8.25781430
 H   8.76437234   6.89362482   8.88082919
 H   8.11284601   5.35873140   8.32002772
 C   10.18747979   5.30424903   8.81861707
 H   10.40582011   4.43322425   8.19609653
 H   11.05529715   5.96563531   8.76153862
 N   9.98720865   4.87023186   10.22378969
 H   10.80381801   4.38871398   10.60156274
 H   9.19378716   4.23459888   10.29941385
 H   9.79474529   5.66874398   10.82759268
 O   9.13795965   9.60060061   5.18267011
 H   9.91722964   10.11278721   4.93037627
