21
conf-883
 N  -4.88656793   0.89440060  -11.11887733
 H  -3.87784224   0.86591058  -11.27532662
 H  -5.30243695   1.60980324  -11.71077797
 H  -5.26312558  -0.02283638  -11.37480727
 C  -5.20936907   1.10917733  -9.69348709
 H  -4.50835678   1.82628293  -9.26297675
 C  -5.04431926  -0.23394949  -8.97593124
 C  -6.63784298   1.60189907  -9.52340108
 H  -6.86634004   1.78235512  -8.47155264
 H  -7.33207227   0.84586947  -9.89892605
 H  -6.80062188   2.53028457  -10.07699837
 O  -5.21479911  -1.30179646  -9.57031761
 N  -4.74490378  -0.17480218  -7.65674896
 H  -4.73673572   0.68668893  -7.13521211
 C  -4.73692971  -1.39514137  -6.87923705
 H  -5.70346602  -1.89300296  -7.01508240
 C  -4.61560548  -1.00318727  -5.41567960
 C  -3.60948229  -2.34843609  -7.33004451
 H  -2.75183593  -2.28824263  -6.65411473
 H  -3.26536213  -2.06005841  -8.32165523
 O  -4.51494086   0.17249128  -5.07096524
 C  -4.14777658  -3.75994298  -7.33072852
 N  -4.48298324  -4.25207885  -8.54637051
 H  -4.94116491  -5.14642370  -8.57118668
 H  -4.58654433  -3.61585902  -9.32287237
 O  -4.29532493  -4.37435644  -6.28547945
 N  -4.61755563  -2.02645069  -4.54225404
 H  -4.54671775  -2.97403426  -4.90550579
 C  -4.43452176  -1.77686023  -3.12052280
 H  -4.91517592  -0.81602053  -2.92776184
 C  -2.93841693  -1.65512675  -2.83622946
 C  -5.07863207  -2.85581036  -2.26694584
 H  -6.08237149  -3.05206733  -2.64557003
 H  -4.50210564  -3.77762503  -2.35890571
 O  -2.26114994  -2.59181475  -2.40279785
 C  -5.16502492  -2.41245772  -0.81287739
 H  -5.79989203  -1.52541861  -0.72669170
 H  -4.18681090  -2.15089113  -0.42057100
 C  -5.82906437  -3.47006615   0.11454473
 O  -5.52719650  -3.36577719   1.31884433
 O  -6.63259043  -4.24665574  -0.41221201
 N  -2.39644454  -0.45556657  -3.11815014
 H  -2.97048321   0.24760282  -3.56291572
 C  -0.96302275  -0.25150547  -3.05948109
 H  -0.49919703  -1.21262730  -3.29975153
 C  -0.57641408   0.08173983  -1.62005903
 C  -0.50119192   0.80759292  -4.04431421
 H   0.58791799   0.89444310  -3.96407867
 H  -0.91021518   1.77488616  -3.75477857
 O  -0.40533570   1.23822948  -1.22041491
 C  -0.86236593   0.51395639  -5.50206883
 H  -1.95071719   0.54319776  -5.59041117
 C  -0.28562750   1.60388074  -6.39944018
 H   0.80449888   1.61388072  -6.32940816
 H  -0.65571945   2.58997318  -6.11051709
 H  -0.55562552   1.43428992  -7.44377051
 C  -0.38765198  -0.86022655  -5.95686439
 H   0.70373943  -0.91791993  -5.91837100
 H  -0.79580961  -1.66857741  -5.34041470
 H  -0.69534119  -1.04354881  -6.99126650
 N  -0.46440887  -0.98445200  -0.80399155
 H  -0.76340917  -1.88373876  -1.15535230
 C  -0.13092268  -0.85015866   0.60194014
 H  -0.60547407   0.07425666   0.94898391
 C   1.39051447  -0.68703415   0.77130070
 C  -0.61171987  -2.04137460   1.41905958
 H  -0.04146457  -2.92283016   1.11839904
 H  -0.34364841  -1.85159984   2.46096150
 O   2.07236347  -1.44054014   1.45176470
 C  -2.10104507  -2.35185876   1.34453240
 H  -2.33776253  -2.67338302   0.32187904
 C  -2.40973142  -3.50545420   2.29739659
 H  -2.18879556  -3.20078593   3.32273837
 H  -1.79327649  -4.37760700   2.06375002
 H  -3.45240968  -3.80444490   2.25154154
 C  -2.96029199  -1.13793289   1.67889507
 H  -2.73294348  -0.78430096   2.68848567
 H  -2.78826209  -0.31369105   0.97754702
 H  -4.01913321  -1.39551006   1.64387641
 N   1.92344673   0.35121648   0.07317631
 H   1.29153887   1.02706013  -0.34312545
 C   3.33086146   0.67581694   0.16814910
 H   3.80313843  -0.17858030   0.65331266
 C   3.50835088   1.90238412   1.06171464
 C   3.93766442   0.85815418  -1.24132259
 H   3.66064762  -0.05555033  -1.78108619
 O   2.74111511   2.84845581   1.04938756
 C   5.46648759   0.94107066  -1.24525900
 H   5.76905301   1.15851806  -2.27676970
 H   5.78472141   1.79265126  -0.64674590
 C   3.33261324   2.05751786  -1.97306248
 H   3.66387261   2.98792589  -1.51092298
 H   2.24073301   2.03538300  -1.93604882
 H   3.64349421   2.05704462  -3.01891208
 C   6.17030093  -0.32929274  -0.79362392
 H   7.25206161  -0.23316583  -0.89812042
 H   5.85237077  -1.18628498  -1.39382716
 H   5.96148017  -0.56362659   0.25648250
 N   4.59997714   1.85625825   1.88507925
 H   5.35393345   1.24686191   1.61327112
 C   4.97020967   3.04237431   2.63475180
 H   4.04663078   3.57224735   2.85708690
 C   5.86618928   3.93642007   1.76641133
 C   5.64057367   2.66118950   3.95511831
 H   6.61930913   2.20479690   3.78356731
 H   5.01574538   1.90304945   4.43182332
 O   6.46404837   3.50586553   0.78041718
 C   5.76617409   3.81601055   4.93491198
 N   6.63493986   3.63964899   5.95664092
 H   7.15895862   2.79018026   6.06569224
 H   6.71574489   4.37414075   6.63679928
 O   5.10589397   4.84228943   4.82297820
 N   5.95149508   5.21822285   2.17232279
 H   5.55780084   5.43411684   3.08346437
 C   6.80943744   6.18027387   1.49452333
 H   6.69193310   5.97714783   0.42573336
 C   8.27615398   5.92806514   1.86462224
 C   6.31526528   7.61069560   1.75183683
 H   5.27784497   7.58012073   1.40290811
 O   8.88738923   6.55972158   2.71572954
 C   6.31184846   8.03163818   3.22018536
 H   7.32319039   8.24754869   3.56108598
 H   5.71315941   8.93828676   3.33389283
 H   5.89084143   7.26069525   3.86893041
 C   7.08445668   8.62073479   0.89904070
 H   8.13290825   8.63940671   1.19781429
 H   6.67442538   9.62415963   1.03120153
 H   7.03172097   8.36717455  -0.16147577
 N   8.87436104   4.92963481   1.16318770
 H   8.28436022   4.27519373   0.66369420
 C   10.22285546   4.53435598   1.51456705
 H   10.28254398   4.34918619   2.59332238
 C   11.22061307   5.64236370   1.23279592
 C   10.60500933   3.26528723   0.75201280
 H   10.57453331   3.47793290  -0.31821841
 H   9.83384740   2.51709136   0.95938192
 O   12.15250831   5.91495667   1.95071491
 C   11.96826375   2.71788179   1.14193472
 H   11.97931232   2.52931535   2.22151223
 H   12.73196977   3.47389450   0.95469333
 C   12.29331195   1.42950985   0.40498484
 H   11.48141069   0.71312588   0.56621526
 H   12.33594323   1.62269374  -0.67111150
 C   13.59034700   0.78062268   0.84856829
 H   13.56444181   0.64157176   1.93289178
 H   13.68609125  -0.21061689   0.40207271
 N   14.78409884   1.59255773   0.49788402
 H   15.65081228   1.16120884   0.81996988
 H   14.73173366   2.51880748   0.91989735
 H   14.85718198   1.72553175  -0.51061013
 O   11.00057749   6.26122307   0.05568351
 H   11.69691840   6.92406863  -0.03084160
