21
conf-197
 N  -3.92497537   0.07740463   4.14571189
 H  -4.90705967  -0.17927402   4.03545393
 H  -3.35293500  -0.72233219   3.85381083
 H  -3.72641960   0.32305678   5.11601703
 C  -3.54980541   1.18290938   3.24891676
 H  -4.39879243   1.85732629   3.11532137
 C  -3.14959399   0.56904631   1.91466494
 C  -2.38516061   1.99393398   3.82484793
 H  -2.12851664   2.78556165   3.11706934
 H  -1.50596477   1.34603560   3.91249283
 O  -2.76503675  -0.59664559   1.84822277
 C  -2.71887828   2.58588698   5.17097297
 C  -2.14701985   2.08540638   6.33622169
 H  -1.42693184   1.27522286   6.27246326
 C  -3.66046071   3.60780096   5.27491575
 H  -4.12326519   3.98412960   4.36972954
 C  -2.49560786   2.60114796   7.58144014
 H  -2.04097998   2.19293891   8.47643319
 C  -4.00252143   4.14069458   6.51363257
 H  -4.72962977   4.94297251   6.56787911
 C  -3.42240468   3.63512223   7.67310831
 H  -3.69104625   4.04264122   8.64105002
 N  -3.19401662   1.39039506   0.84289264
 H  -3.31457297   2.37535731   0.99670590
 C  -2.70827330   0.97907376  -0.47081471
 H  -2.91832390  -0.09035890  -0.53261126
 C  -1.19171422   1.17368113  -0.53903659
 C  -3.41023394   1.74171660  -1.58277790
 H  -3.33165272   2.80777472  -1.35898411
 H  -2.86723554   1.58573400  -2.51570057
 O  -0.65441472   2.02769886  -1.24995547
 C  -4.87200423   1.34908100  -1.79400857
 H  -5.38436489   1.37284462  -0.82857509
 C  -5.54573345   2.36392051  -2.71493435
 H  -5.04785345   2.38304812  -3.68840890
 H  -6.59609380   2.11158267  -2.87936960
 H  -5.50529087   3.37109446  -2.29416363
 C  -4.99441671  -0.05564603  -2.37869196
 H  -4.53848356  -0.08936930  -3.37211926
 H  -4.49867832  -0.80559733  -1.75788687
 H  -6.04367828  -0.34387341  -2.47875689
 N  -0.46781538   0.36225846   0.25945054
 H  -0.95089688  -0.32144410   0.83364720
 C   0.97100630   0.51978903   0.38408528
 H   1.19904506   1.58185809   0.25020569
 C   1.70035745  -0.26980311  -0.71446538
 C   1.44943838   0.09413004   1.76612761
 H   0.76073797   0.50750198   2.50802471
 H   1.44979548  -0.99374716   1.86568359
 O   2.46885668  -1.18802807  -0.47363928
 C   2.81728292   0.68306340   2.07138041
 N   3.58008836  -0.04142619   2.93575717
 H   4.51189776   0.28681293   3.11869201
 H   3.31551814  -0.96488160   3.22138470
 O   3.17217635   1.75418459   1.61483348
 N   1.41230282   0.11506847  -1.98337617
 H   0.87674370   0.96198236  -2.12133220
 C   2.14391646  -0.46038425  -3.09126700
 H   2.19821224  -1.54164475  -2.93781304
 C   3.57589300   0.03672059  -3.14903472
 C   1.41732599  -0.16683653  -4.40842531
 H   1.42303816   0.90834621  -4.59791192
 H   0.38036045  -0.46457216  -4.26966340
 O   4.51919374  -0.63215390  -3.49146152
 C   2.00862819  -0.91079120  -5.59711792
 H   3.04577865  -0.60508518  -5.76689343
 H   2.03403366  -1.98404483  -5.38135282
 C   1.21451146  -0.67598898  -6.87085115
 H   1.12185999   0.39241403  -7.07099344
 H   1.73257120  -1.11373468  -7.73152118
 N  -0.13861790  -1.21475651  -6.75365473
 H  -0.17507315  -2.18950208  -6.50594481
 N  -2.19856703  -1.68877511  -7.65909460
 H  -2.94214581  -1.36568287  -8.25977330
 H  -2.52160598  -1.79915873  -6.70816389
 N  -0.79487309   0.01880610  -8.61246344
 H  -1.58269645   0.13160469  -9.24533900
 C  -1.04160037  -0.89403280  -7.75297219
 O   3.68382630   1.34002291  -2.82102421
 H   4.61703446   1.56701057  -2.90592014
