21
conf-448
 N  -5.19014787   2.61809665   3.08723510
 H  -5.77941166   2.80297182   2.27302651
 H  -5.53419666   1.76596459   3.53692583
 H  -5.28632697   3.39280016   3.74173868
 C  -3.77784867   2.41209348   2.70299551
 H  -3.44716261   3.23516961   2.06587899
 C  -3.65636624   1.09536705   1.93726408
 C  -2.89221657   2.35878863   3.95095891
 H  -3.27047384   1.55671358   4.58627233
 H  -3.03062096   3.30212436   4.48727259
 O  -4.23126219   0.08124910   2.32361340
 C  -1.43749711   2.11970946   3.65328593
 C  -0.83818403   0.91170141   4.00240732
 H  -1.42066903   0.14817145   4.50707545
 C  -0.66962579   3.08785593   3.00639488
 H  -1.13837378   4.02535978   2.72313419
 C   0.50937573   0.68636944   3.72998870
 H   0.97049478  -0.25113576   4.02062327
 C   0.67750761   2.86174325   2.72119074
 H   1.25802127   3.62573985   2.21814505
 C   1.26560206   1.65675874   3.08908154
 H   2.30775941   1.46189564   2.86345836
 N  -2.85688316   1.13864979   0.84323394
 H  -2.26408494   1.93998160   0.68889341
 C  -2.40201561  -0.06161411   0.16362664
 H  -2.65253405  -0.92178819   0.78566610
 C  -0.89199101   0.09183417   0.03864408
 C  -3.02764131  -0.20715651  -1.22293005
 H  -2.77057101   0.67983658  -1.80315485
 H  -2.57300663  -1.06143270  -1.73282261
 O  -0.40107575   1.18841438  -0.23567360
 C  -4.54704660  -0.39726835  -1.23589321
 H  -5.00044569   0.43656511  -0.69862551
 C  -5.05316436  -0.36544075  -2.67499828
 H  -4.60902266  -1.18072431  -3.25218783
 H  -6.13959386  -0.47440135  -2.71281054
 H  -4.79180047   0.57782735  -3.15974968
 C  -4.95723997  -1.69670466  -0.54835842
 H  -4.51702963  -2.55326346  -1.06844186
 H  -4.63603498  -1.72163432   0.49357209
 H  -6.04403990  -1.81114632  -0.56747339
 N  -0.14099445  -1.02074421   0.18238541
 H  -0.58150304  -1.87509684   0.48726192
 C   1.31689880  -0.94224216   0.26534757
 H   1.55612424   0.01897743   0.73408946
 C   1.91664122  -0.98659893  -1.14999944
 C   1.83637387  -2.07860289   1.13726568
 H   1.21320550  -2.14707391   2.02784424
 H   1.77005675  -3.01705271   0.58479033
 O   2.59695602  -1.92815450  -1.54139621
 C   3.25038507  -1.80974020   1.62152351
 N   4.22937919  -2.35314258   0.85121218
 H   5.17409684  -2.10208544   1.08836009
 H   4.00958226  -2.58340689  -0.10809996
 O   3.46985145  -1.16503539   2.63238559
 N   1.62420680   0.07626709  -1.93045226
 H   1.06754227   0.83169923  -1.54964518
 C   2.19274124   0.20306252  -3.25818097
 H   2.59081788  -0.77645306  -3.52371101
 C   3.34671532   1.18637627  -3.20436026
 C   1.14704737   0.64992717  -4.27178077
 H   0.83651060   1.66980766  -4.03407980
 H   0.27475284   0.00359065  -4.15976606
 O   3.28151563   2.35563975  -3.49665856
 C   1.65021224   0.57998279  -5.70822041
 H   2.49775139   1.25268433  -5.83552797
 H   2.00539757  -0.42992902  -5.92190997
 C   0.55533436   0.95321962  -6.70370639
 H  -0.28911074   0.26739210  -6.59470286
 H   0.18941606   1.95857866  -6.49134358
 N   0.97361550   0.89225158  -8.09666858
 H   1.12590514  -0.04868207  -8.43218086
 N   2.01505744   2.98038319  -8.00269107
 H   2.66484711   3.60285677  -8.45636734
 H   1.09679955   3.39009023  -7.90977123
 N   2.84649413   1.20940146  -9.38679421
 H   3.53006635   1.91137252  -9.65430843
 C   2.01071432   1.69180729  -8.54518500
 O   4.47249374   0.60486028  -2.74715769
 H   5.13871902   1.30249869  -2.71049289
