21
conf-962
 N  -6.04876812   0.74328768   3.34694700
 H  -6.59233701   1.20027336   2.61571041
 H  -6.10157822  -0.26388567   3.18352397
 H  -6.46568462   0.92904247   4.25793174
 C  -4.63329255   1.15146125   3.30387181
 H  -4.56956351   2.24597008   3.27677490
 C  -4.01718070   0.62136591   2.00909544
 C  -3.88305336   0.64794324   4.54731062
 H  -4.20665064   1.24971079   5.40140675
 H  -2.81311385   0.82174570   4.41261031
 O  -4.59444244  -0.18707237   1.29549892
 C  -4.16269381  -0.80238768   4.83156997
 C  -5.08451817  -1.16496278   5.81149392
 H  -5.56138186  -0.38985277   6.40178564
 C  -3.55748045  -1.80786986   4.08265656
 H  -2.83711321  -1.53427604   3.32008336
 C  -5.40461401  -2.50090248   6.03418389
 H  -6.12727719  -2.76095970   6.79892096
 C  -3.87170856  -3.14678513   4.29874559
 H  -3.38776103  -3.90933673   3.70076746
 C  -4.79902921  -3.49716054   5.27537073
 H  -5.04504926  -4.53932308   5.44445597
 N  -2.78793993   1.09420788   1.70523951
 H  -2.28933441   1.74980070   2.28650509
 C  -2.11598153   0.68249855   0.49332241
 H  -2.24747525  -0.39793011   0.38832688
 C  -0.63828616   1.02327928   0.68557028
 C  -2.70276876   1.36611193  -0.74921651
 H  -3.79035403   1.34112303  -0.64008460
 H  -2.41226537   2.42076903  -0.73898248
 O  -0.26300334   1.82942024   1.51611829
 C  -2.35910362   0.73406529  -2.10258118
 H  -1.29669408   0.87026575  -2.32080312
 C  -2.67468537  -0.75971998  -2.10921007
 H  -3.65866307  -0.93504214  -1.65774474
 H  -2.69150152  -1.15448333  -3.12763251
 H  -1.93469745  -1.33854356  -1.54827802
 C  -3.14552084   1.45779363  -3.19443343
 H  -4.21799159   1.31310961  -3.04601197
 H  -2.94157925   2.53094097  -3.18209609
 H  -2.88460950   1.07889188  -4.18476605
 N   0.20320092   0.39812556  -0.16508072
 H  -0.11425450  -0.19712612  -0.91133757
 C   1.61414441   0.71149301  -0.24518605
 H   1.75186640   1.79395332  -0.17764949
 C   2.05034183   0.16122234  -1.60645158
 C   2.38468669   0.06661877   0.91444437
 H   1.86311870   0.33965324   1.83593684
 H   2.35162260  -1.02224117   0.83443108
 O   1.36064774  -0.63280062  -2.22154252
 C   3.82513658   0.53156617   1.01873253
 N   4.64250923  -0.24422446   1.77264623
 H   5.57848596   0.08071401   1.93543126
 H   4.27544348  -0.99774036   2.32459212
 O   4.22515046   1.54644420   0.46516619
 N   3.25270160   0.60601623  -2.05116235
 H   3.78443454   1.16790135  -1.39697419
 C   4.01341107  -0.22743373  -2.96198604
 H   3.28367899  -0.72150386  -3.60849878
 C   4.75021877  -1.34520688  -2.23862814
 C   4.97587265   0.59815612  -3.81594921
 H   4.37247414   1.31664166  -4.37666083
 H   5.43035463  -0.08230431  -4.53885268
 O   5.69305371  -1.93951785  -2.69847980
 C   6.05721505   1.31466319  -3.01960806
 H   5.62446167   1.84246797  -2.16558379
 H   6.75343935   0.57986834  -2.61842802
 C   6.84680327   2.32874488  -3.84835127
 H   6.18461073   3.12460635  -4.19956130
 H   7.61314662   2.78383307  -3.21990118
 N   7.52450080   1.78239938  -5.01295867
 H   6.91343296   1.48930832  -5.75419209
 N   8.97837850   0.31842574  -6.03357746
 H   9.87295751  -0.14385754  -5.97364121
 H   8.93534902   0.92541861  -6.84014160
 N   9.21996704   0.88200282  -3.71123755
 H   10.03060858   0.27204642  -3.78599290
 C   8.62781757   0.97460178  -4.84170041
 O   4.21870120  -1.63373375  -1.03170394
 H   4.75379300  -2.35666233  -0.67497019
