21
conf-684
 N  -4.87785135   0.83577976   3.94476509
 H  -5.62247267   0.75802957   3.24767466
 H  -4.54109285  -0.10682492   4.15483552
 H  -5.26808500   1.24257533   4.79392641
 C  -3.73578808   1.63684581   3.43535959
 H  -4.10539144   2.58508882   3.03336216
 C  -3.06143450   0.83567826   2.33263137
 C  -2.72948226   1.89833593   4.55124884
 H  -2.35064597   0.92683053   4.87390101
 H  -3.26895662   2.34033735   5.39306921
 O  -2.55522902  -0.26314945   2.56911654
 C  -1.59908312   2.80188168   4.13763443
 C  -0.50883891   2.29924165   3.41943540
 H  -0.49526743   1.24284950   3.16579162
 C  -1.62618399   4.16332610   4.44201359
 H  -2.46527184   4.56742381   4.99453318
 C   0.53603521   3.13871551   3.04349037
 H   1.38330818   2.72944885   2.50304579
 C  -0.58731404   5.00476083   4.05288302
 H  -0.63200329   6.05912326   4.30312681
 C   0.50221442   4.49369482   3.35473113
 H   1.31814182   5.14160228   3.05549364
 N  -3.11889800   1.38038358   1.09440269
 H  -3.36554934   2.34824517   0.99121414
 C  -2.49050161   0.70876576  -0.03068294
 H  -2.57720603  -0.36108613   0.17990132
 C  -1.02223216   1.11848353  -0.10565463
 C  -3.20429606   1.05660872  -1.32837988
 H  -4.24097357   0.72659994  -1.23193755
 H  -3.21459606   2.14475653  -1.43016977
 O  -0.68235627   2.21331858  -0.53725003
 C  -2.59799228   0.44613602  -2.59761795
 H  -1.59618164   0.87316598  -2.72317782
 C  -2.46179214  -1.07100722  -2.50725952
 H  -3.43843922  -1.53686874  -2.34531281
 H  -2.04937182  -1.46741750  -3.43931380
 H  -1.78903415  -1.37376054  -1.70312840
 C  -3.44773290   0.84450993  -3.80182830
 H  -4.45335291   0.42884549  -3.70737302
 H  -3.53079237   1.93040788  -3.88147611
 H  -3.01037991   0.47108297  -4.73031483
 N  -0.12930843   0.21296907   0.35473276
 H  -0.43137054  -0.72824844   0.57175261
 C   1.27669115   0.39939815   0.06158803
 H   1.49817274   1.45465436   0.23008479
 C   1.57352597   0.06455467  -1.40309773
 C   2.12944166  -0.47804952   0.98918978
 H   3.19217303  -0.28628761   0.82990562
 H   1.86429603  -0.23433968   2.01932759
 O   0.96144181  -0.79212118  -2.02670361
 C   1.78833029  -1.93939795   0.76608690
 N   2.71315931  -2.68564656   0.11773472
 H   2.44057403  -3.62682951  -0.10888125
 H   3.46620381  -2.24497491  -0.39463146
 O   0.72759206  -2.40265982   1.15811283
 N   2.60298689   0.77643191  -1.94648670
 H   3.18502907   1.27584275  -1.29771918
 C   3.23988634   0.27977658  -3.15153228
 H   2.47410187  -0.25151708  -3.71290126
 C   4.32152491  -0.72304816  -2.81174854
 C   3.80405040   1.41264467  -4.01577992
 H   2.97960634   2.09279501  -4.24031768
 H   4.12301172   0.97751431  -4.96622501
 O   4.76847750  -0.93193329  -1.70594336
 C   4.95739669   2.18035255  -3.38904971
 H   4.65020697   2.61947776  -2.44002510
 H   5.78869003   1.50906381  -3.17962612
 C   5.45779797   3.28388667  -4.31395374
 H   5.79756376   2.84996456  -5.25543012
 H   4.64207807   3.97673526  -4.53423620
 N   6.56205630   4.05159389  -3.76745010
 H   6.34752030   4.55086760  -2.92079180
 N   8.71162150   4.28595033  -3.00349285
 H   9.67547005   4.00897061  -3.11455896
 H   8.59604454   5.27693432  -3.16329792
 N   8.10723248   2.44210054  -4.42051541
 H   9.09783630   2.22528494  -4.33824764
 C   7.82948840   3.51049565  -3.77551982
 O   4.76563196  -1.36609743  -3.90547477
 H   5.45843823  -1.96458715  -3.60041242
