21
conf-304
 N  -5.99334529   0.43463884   3.87629877
 H  -6.81740027   0.57979294   3.29193317
 H  -5.78081559  -0.56577691   3.86725106
 H  -6.19395895   0.72891657   4.83272819
 C  -4.83413195   1.17405634   3.34830930
 H  -5.11595568   2.22139850   3.20802251
 C  -4.42370057   0.58401074   1.99910810
 C  -3.66305885   1.12327253   4.32934743
 H  -2.81978231   1.67035054   3.89965002
 H  -3.35017659   0.08312825   4.43924924
 O  -4.77429106  -0.53349227   1.64550362
 C  -4.02351569   1.69444325   5.67670490
 C  -4.07865449   0.88023420   6.80343326
 H  -3.83580001  -0.17346988   6.71068060
 C  -4.34824958   3.04125163   5.80943821
 H  -4.31709743   3.67474216   4.93095235
 C  -4.44463369   1.39848624   8.04196548
 H  -4.48372816   0.74636331   8.90689754
 C  -4.70138766   3.57200834   7.04558218
 H  -4.94298350   4.62593539   7.12616884
 C  -4.75453820   2.74933340   8.16651804
 H  -5.03542955   3.15833147   9.13047158
 N  -3.63892072   1.39701742   1.23807646
 H  -3.15784510   2.16400047   1.68406948
 C  -2.90466462   0.88566628   0.10320762
 H  -2.97045585  -0.20845567   0.10436237
 C  -1.44011364   1.28764785   0.32799585
 C  -3.42089984   1.42616495  -1.22630623
 H  -3.33558871   2.51558675  -1.21156552
 H  -2.76390082   1.06904165  -2.02124095
 O  -1.11984549   2.07798038   1.19919545
 C  -4.86041110   1.03786379  -1.57161701
 H  -5.50565171   1.33614718  -0.74427953
 C  -5.30484852   1.79672148  -2.81871419
 H  -4.66795464   1.53760242  -3.66866232
 H  -6.33698900   1.55267852  -3.08084547
 H  -5.24368746   2.87596480  -2.66228263
 C  -5.00383136  -0.46709243  -1.78120084
 H  -4.36260880  -0.79367853  -2.60541530
 H  -4.73375679  -1.03258785  -0.88908515
 H  -6.03592311  -0.71884093  -2.03871350
 N  -0.55103943   0.74569202  -0.53668759
 H  -0.82774755  -0.02599806  -1.12222771
 C   0.86531534   0.82676171  -0.25200155
 H   1.11267720   1.86805896  -0.04553153
 C   1.61747747   0.31467982  -1.48086217
 C   1.25099200  -0.01634655   0.97977307
 H   2.32102269   0.08338552   1.17499159
 H   0.68422314   0.35434212   1.83269221
 O   1.07355249  -0.34096325  -2.35006036
 C   0.86713725  -1.46403904   0.72894299
 N   1.89115767  -2.27755005   0.35604331
 H   1.63724153  -3.20337371   0.05471046
 H   2.77207478  -1.88017500   0.06251577
 O  -0.28521234  -1.85321008   0.83131487
 N   2.94292691   0.59298767  -1.49208553
 H   3.34734965   1.10715439  -0.73168394
 C   3.81323692  -0.03460475  -2.45586855
 H   3.21235625  -0.81148553  -2.94306098
 C   4.95789117  -0.77241304  -1.79872765
 C   4.31569389   0.92447317  -3.53300641
 H   5.01560812   0.38616672  -4.16876354
 H   4.87317808   1.74109466  -3.07529161
 O   5.97564872  -1.09766850  -2.34924243
 C   3.17064401   1.47115742  -4.37169235
 H   2.54417141   0.63988416  -4.71084446
 H   2.53094806   2.10923448  -3.75955187
 C   3.64114756   2.24906925  -5.59697250
 H   4.24075181   1.60594978  -6.24263712
 H   2.76937191   2.58172405  -6.16748598
 N   4.45511969   3.40939353  -5.28124095
 H   4.08540997   4.01433707  -4.56945618
 N   6.40294108   4.50226560  -4.75575691
 H   7.39997206   4.54404211  -4.90302739
 H   5.95388766   5.34713045  -5.08049027
 N   6.45612621   2.32877345  -5.77050237
 H   7.45980048   2.48857478  -5.73532538
 C   5.82837559   3.34145181  -5.30380596
 O   4.69365299  -1.09786467  -0.51137795
 H   5.47577130  -1.56884575  -0.19025330
