21
conf-564
 N  -8.60182965  -2.24120816  -6.67202709
 H  -9.16911072  -1.50785548  -6.24269239
 H  -9.18975679  -3.04446754  -6.88274795
 H  -8.22488935  -1.85934989  -7.54316407
 C  -7.45198894  -2.60800692  -5.81958913
 H  -7.79119385  -2.72497055  -4.78669811
 C  -6.43132337  -1.47174566  -5.88238619
 C  -6.82133509  -3.90612025  -6.30289727
 H  -5.96392589  -4.18065628  -5.68648038
 H  -7.54607807  -4.72341169  -6.27149821
 H  -6.47684816  -3.78865880  -7.33343033
 O  -6.35295828  -0.74090512  -6.85812751
 N  -5.61950057  -1.36217983  -4.79276627
 H  -5.54455766  -2.13020024  -4.14260825
 C  -4.47603654  -0.47646432  -4.76566310
 H  -4.31372801  -0.09462490  -5.77622619
 C  -3.28483932  -1.29296922  -4.27102261
 C  -4.70716128   0.70484638  -3.80095362
 H  -4.96375335   0.29533114  -2.82087663
 H  -3.77632596   1.26980684  -3.68989428
 O  -3.42408375  -2.30819837  -3.61867481
 C  -5.81068082   1.59900877  -4.27949132
 C  -7.14817807   1.38301914  -4.09915407
 H  -7.63917140   0.56529791  -3.59269955
 C  -5.69452231   2.80030776  -5.06787507
 C  -6.99648550   3.26297074  -5.32192593
 C  -4.59757735   3.50724546  -5.57454884
 H  -3.58265524   3.16653916  -5.39747073
 N  -7.86722731   2.38094875  -4.71922595
 H  -8.86783108   2.42963924  -4.76183738
 C  -6.14776494   5.10280464  -6.55626159
 H  -6.29963877   6.00360339  -7.13858111
 C  -7.24839154   4.41692707  -6.06648611
 H  -8.26134276   4.75773992  -6.25077802
 C  -4.83614382   4.65290488  -6.31386698
 H  -4.00063536   5.21509159  -6.71368073
 N  -2.05724649  -0.78303461  -4.59419836
 H  -2.03903797   0.17396590  -4.89944326
 C  -0.88066971  -1.20561475  -3.83671487
 H  -0.99253541  -2.27351447  -3.64676596
 C  -0.84960330  -0.44033482  -2.52626372
 C   0.38818998  -0.92423403  -4.63672730
 H   0.25931550  -1.35448705  -5.62917579
 H   0.49745249   0.15423399  -4.75368654
 O  -0.79831289   0.78560696  -2.52156016
 C   1.63058969  -1.49744234  -3.96997068
 H   1.73904212  -1.04584622  -2.98395723
 H   1.55476141  -2.57706382  -3.83232453
 C   2.91143953  -1.22987509  -4.69279393
 O   3.79941550  -2.02493320  -4.85522505
 O   2.99885114   0.05404861  -5.12023301
 N  -0.90179274  -1.16950499  -1.38246011
 H  -0.65521947  -2.14404073  -1.46174337
 C  -0.48383949  -0.49844656  -0.16160954
 H  -1.01531112   0.45246403  -0.15038820
 C   1.02710175  -0.15504834  -0.25397954
 C  -0.85082595  -1.28770207   1.10391232
 H  -0.44555925  -0.71509606   1.94474128
 O   1.88617736  -0.89902187  -0.78752966
 C  -2.36671249  -1.35718776   1.27610946
 H  -2.82543628  -1.90018848   0.44750141
 H  -2.62340850  -1.87595906   2.20237380
 H  -2.80455093  -0.35732322   1.31203045
 C  -0.21778599  -2.67590280   1.11098019
 H  -0.73672247  -3.33604421   0.41206789
 H   0.83676076  -2.62373628   0.82967726
 H  -0.29325002  -3.11896723   2.10564634
 N   1.34285708   1.02438622   0.33977018
 H   0.61246856   1.67751466   0.56858905
 C   2.67204877   1.57227144   0.22951370
 H   3.35120978   0.74544889   0.03102239
 C   3.02482869   2.23839592   1.54635162
 C   2.77893414   2.57565241  -0.93455129
 H   3.80159861   2.97742742  -0.91878470
 O   2.25043724   3.03172634   2.09041579
 C   2.50793252   1.88596250  -2.26029217
 H   2.98858123   0.90910036  -2.28119124
 H   1.43037499   1.75636993  -2.37553371
 H   2.86796384   2.49323408  -3.08770486
 O   1.82099029   3.61633630  -0.82062469
 H   1.96420940   4.07101959   0.01847054
 N   4.23013731   1.90567979   2.06273423
 H   4.87023839   1.34861444   1.51224520
 C   4.83368873   2.65058611   3.15630204
 H   4.26014290   3.57093873   3.29973629
 C   6.26152157   2.97784202   2.72648947
 C   4.80186555   1.86332619   4.48405935
 H   5.26360201   0.89376591   4.28439055
 O   6.94199426   2.17086961   2.11187341
 C   5.58537344   2.55437653   5.60015072
 H   5.20149284   3.56673300   5.76528175
 H   6.65354679   2.62396955   5.38041868
 H   5.47243603   1.99602292   6.53166985
 C   3.35543783   1.65306760   4.92793172
 H   2.90269528   2.62102941   5.16377008
 H   3.32024548   1.03026586   5.82360148
 H   2.75086509   1.17884162   4.15611433
 N   6.71984577   4.20345231   3.10886352
 H   6.26127880   4.70716243   3.85705005
 C   8.12519511   4.49895064   3.12566052
 H   8.71135549   3.56777013   3.13311285
 C   8.37406030   5.28621789   4.45224214
 C   8.60101665   5.36555628   1.95969022
 H   9.64133035   5.63283268   2.16622117
 H   8.02652360   6.29628141   1.92569435
 O   9.54569056   5.55657143   4.72063368
 C   8.50183439   4.65146283   0.62048793
 H   9.02102137   3.68946209   0.68805090
 H   7.46303287   4.42358945   0.39727201
 C   9.09188882   5.46773259  -0.51510829
 H   8.56895630   6.42541857  -0.58569055
 H   10.14216768   5.68964100  -0.30682075
 C   8.99179255   4.75781732  -1.84692263
 H   7.94338258   4.52491237  -2.04773330
 H   9.52688801   3.80716476  -1.78734127
 N   9.54212168   5.56680006  -2.96316100
 H   9.46946105   5.08870631  -3.86181830
 H   9.04846125   6.45480021  -3.04678629
 H   10.52675843   5.78069516  -2.80787469
 O   7.33982109   5.55658270   5.10522445
 H   3.85516325   0.13676551  -5.55857437
