21
conf-727
 N  -7.62256075  -3.86267586  -4.78714922
 H  -8.19507418  -4.20168656  -4.01223354
 H  -8.07696842  -4.08317731  -5.66982667
 H  -7.53716880  -2.84704394  -4.69088713
 C  -6.24683963  -4.39884297  -4.73303250
 H  -6.26898064  -5.43555634  -4.39264542
 C  -5.47093181  -3.56238232  -3.72214940
 C  -5.58727848  -4.32543006  -6.10392242
 H  -4.56368266  -4.70615473  -6.06716715
 H  -6.14736069  -4.92162838  -6.82833414
 H  -5.55951212  -3.29376790  -6.46284926
 O  -5.75595009  -2.37951548  -3.54013446
 N  -4.43839294  -4.16720744  -3.10066892
 H  -4.27621306  -5.14782359  -3.24470708
 C  -3.66863386  -3.50489151  -2.05314371
 H  -4.35098347  -2.82681823  -1.53803205
 C  -2.54742172  -2.67374523  -2.68878484
 C  -3.11711046  -4.54017373  -1.08029881
 H  -2.50538078  -5.25623881  -1.63035257
 H  -2.42867670  -4.03328898  -0.39722171
 O  -1.35011754  -2.92431704  -2.52322897
 C  -4.19720570  -5.24827275  -0.31949923
 C  -5.49601706  -4.85952741  -0.10706108
 H  -6.03011419  -3.98521247  -0.43643376
 C  -4.03744028  -6.50861565   0.36231263
 C  -5.26800269  -6.82540185   0.95974138
 C  -2.95454570  -7.38653221   0.50289109
 H  -1.99140948  -7.16697362   0.05511438
 N  -6.13999496  -5.80824696   0.66027982
 H  -7.09218156  -5.75380266   0.97005799
 C  -4.37798554  -8.84596744   1.83016556
 H  -4.48626967  -9.76235019   2.39766570
 C  -5.46273697  -7.99262448   1.70264395
 H  -6.42205452  -8.21618145   2.15619941
 C  -3.13706827  -8.54583073   1.23665437
 H  -2.31253417  -9.23848954   1.35761931
 N  -2.95481365  -1.65976033  -3.47850123
 H  -3.93988503  -1.42911172  -3.52947207
 C  -2.01447131  -0.89009842  -4.27273105
 H  -1.19072679  -1.56376129  -4.53222405
 C  -1.47821742   0.24806363  -3.39639684
 C  -2.67999666  -0.36571591  -5.53752415
 H  -3.43174770   0.37131798  -5.26233120
 H  -1.94441194   0.15186513  -6.14869358
 O  -1.89384853   1.39702593  -3.46257416
 C  -3.30063254  -1.51559670  -6.32196164
 H  -2.52840918  -2.25244933  -6.56484268
 H  -4.06123560  -2.02186706  -5.72942618
 C  -3.93229660  -1.09476688  -7.60998951
 O  -5.02928502  -1.42243677  -7.99151015
 O  -3.11972428  -0.30972551  -8.34865726
 N  -0.52520475  -0.12780406  -2.50846459
 H  -0.29953563  -1.10952817  -2.38630229
 C  -0.02203659   0.80882523  -1.52785995
 H  -0.09218227   1.80305843  -1.97531555
 C   1.43369520   0.46797536  -1.23290471
 C  -0.87946393   0.82551946  -0.23425511
 H  -1.87905150   1.09718838  -0.58383873
 O   1.83269367  -0.68169969  -1.13890601
 C  -0.93582791  -0.54056975   0.44981404
 H   0.04725745  -0.79844274   0.84475686
 H  -1.64885282  -0.51583713   1.27590095
 H  -1.23618609  -1.32685692  -0.24744338
 C  -0.40451079   1.89529103   0.75259881
 H   0.57444778   1.64847471   1.16873129
 H  -0.34189011   2.87747801   0.27565669
 H  -1.11267788   1.97193256   1.58048652
 N   2.25468384   1.53764411  -1.05585463
 H   1.86896552   2.46407000  -1.03483619
 C   3.57943446   1.36291531  -0.49631672
 H   3.99864436   0.46005298  -0.94877445
 C   3.47617505   1.21858227   1.01919714
 C   4.45939866   2.57474097  -0.85815800
 H   3.98349020   3.46145313  -0.43381773
 O   2.98649801   2.11452974   1.70690222
 C   5.87734333   2.44319287  -0.34174831
 H   5.89748080   2.32107356   0.74221943
 H   6.35257108   1.57196061  -0.79953730
 H   6.45255000   3.33497763  -0.61038724
 O   4.46732078   2.78124136  -2.26331509
 H   4.91953183   2.03206383  -2.66009181
 N   3.96871770   0.05429970   1.53334828
 H   4.48659288  -0.50596793   0.87380647
 C   4.50989352   0.05132883   2.88789938
 H   3.90887787   0.76512559   3.45110666
 C   5.96519798   0.57076084   2.84111772
 C   4.37119385  -1.33716962   3.54746605
 H   3.30467667  -1.56236779   3.48060416
 O   6.70348438   0.38953113   1.85202329
 C   5.16205160  -2.40612699   2.80004785
 H   6.20994507  -2.10433163   2.74051254
 H   4.78776506  -2.55172030   1.78401022
 H   5.10266584  -3.36312226   3.32154873
 C   4.76768358  -1.32023102   5.02295908
 H   5.84593679  -1.20086526   5.13236125
 H   4.48536024  -2.26278277   5.49740493
 H   4.27624778  -0.51065728   5.57116991
 N   6.34006806   1.26874653   3.95592328
 H   5.82088328   1.15451774   4.81270774
 C   7.72170318   1.52745777   4.26364385
 H   8.37280906   0.79721100   3.75645614
 C   7.83856414   1.33629259   5.80599498
 C   8.18848385   2.94489943   3.92274236
 H   9.08837652   3.15606262   4.51094441
 H   7.41776199   3.65341619   4.23882819
 O   8.96975212   1.40421656   6.29020943
 C   8.48543717   3.12352480   2.44314583
 H   9.34841289   2.50136424   2.17801381
 H   7.64701314   2.74122689   1.85560315
 C   8.78582323   4.56410458   2.07110208
 H   7.93530564   5.20107859   2.33118513
 H   9.63699346   4.91868821   2.65862037
 C   9.09815674   4.73877873   0.60253186
 H   8.23777214   4.42919661   0.00532853
 H   9.93209589   4.08670889   0.33316506
 N   9.42602858   6.14255361   0.25622053
 H   9.61548029   6.26070101  -0.73923796
 H   8.65514260   6.76366849   0.49778090
 H   10.24744918   6.46388818   0.76739747
 O   6.75198887   1.12845022   6.39248048
 H  -3.60567089  -0.11115635  -9.15882125
