21
conf-883
 N  -4.47354665  -1.53782430  -9.40192194
 H  -5.11646255  -0.86842808  -9.82793148
 H  -4.37807559  -2.34696922  -10.01186339
 H  -3.56445779  -1.07712087  -9.31304426
 C  -4.90404471  -1.92605151  -8.04323748
 H  -5.97968250  -2.11495119  -8.04008769
 C  -4.60903965  -0.77878988  -7.08952459
 C  -4.15603327  -3.16800124  -7.56380056
 H  -4.40043755  -3.38129972  -6.51962913
 H  -4.39441882  -4.03775447  -8.17981367
 H  -3.07957614  -2.98211987  -7.62444972
 O  -3.66775882  -0.02055656  -7.25756962
 N  -5.43482537  -0.69810423  -5.99713284
 H  -5.97521806  -1.52737871  -5.82042163
 C  -4.90351862  -0.07890704  -4.78077727
 H  -4.50172737   0.89701549  -5.05789754
 C  -3.79189219  -0.96151415  -4.21700161
 C  -6.01234947   0.06153697  -3.72414209
 H  -6.83595617   0.63189091  -4.15050111
 H  -6.36495199  -0.94122004  -3.47860584
 O  -3.94603463  -2.18186440  -4.10534476
 C  -5.48178569   0.72346404  -2.48669661
 C  -4.82357527   0.08300122  -1.47759482
 H  -4.65558996  -0.97139865  -1.33861640
 C  -5.40484208   2.13289086  -2.19178393
 C  -4.68788812   2.27355203  -0.99536758
 C  -5.87084384   3.27542444  -2.85673748
 H  -6.42382697   3.19442832  -3.78674545
 N  -4.37285209   1.00269500  -0.54893536
 H  -3.60203561   0.80662615   0.07670735
 C  -4.89060286   4.63303352  -1.09608338
 H  -4.70087231   5.61794553  -0.68565330
 C  -4.41980422   3.51438094  -0.42381937
 H  -3.86992454   3.60237085   0.50613390
 C  -5.60886159   4.51536302  -2.29968038
 H  -5.96166214   5.41087271  -2.79704750
 N  -2.66768865  -0.31175624  -3.83808786
 H  -2.61748733   0.69327845  -3.87832032
 C  -1.61510052  -0.99679278  -3.11058116
 H  -2.03069768  -1.94467954  -2.76133122
 C  -1.23063251  -0.12533158  -1.92796448
 C  -0.40397182  -1.28973174  -3.99724129
 H   0.09546609  -0.35680165  -4.25450998
 H   0.30847901  -1.88529721  -3.42822381
 O  -1.04647159   1.07350132  -2.05549175
 C  -0.83635333  -2.03741140  -5.26064171
 H  -1.57559936  -2.80471297  -5.01038697
 H  -1.31472363  -1.37262835  -5.98175138
 C   0.31317143  -2.72191738  -5.94108245
 O   1.41123020  -2.89879397  -5.48009691
 O  -0.03801759  -3.16471526  -7.17162096
 N  -1.11602266  -0.75513186  -0.71875933
 H  -0.92980483  -1.74470654  -0.76614436
 C  -0.37895044  -0.04837481   0.32949048
 H  -0.86491877   0.92019830   0.46859397
 C   1.04731057   0.17308477  -0.17283666
 C  -0.42421375  -0.81856146   1.66013294
 H  -0.01217486  -1.80940260   1.45054646
 O   1.63701070  -0.65620154  -0.85292045
 C   0.41974422  -0.15540787   2.74968318
 H   0.04818847   0.85648163   2.95405815
 H   0.34284796  -0.73277469   3.67373363
 H   1.47908627  -0.08744400   2.48610283
 C  -1.86150155  -0.96030510   2.15835700
 H  -2.28108597   0.03042845   2.35959225
 H  -2.50053559  -1.46926926   1.43607327
 H  -1.88624959  -1.53001752   3.08976243
 N   1.59241203   1.37183121   0.17698024
 H   1.15979357   1.91497578   0.91110772
 C   3.00124675   1.65214576  -0.00105635
 H   3.51330336   0.71541879  -0.21869740
 C   3.52268303   2.23312829   1.30266528
 C   3.20960751   2.62148383  -1.18311198
 H   4.16602755   3.13909910  -1.07592241
 O   2.80515937   2.87237019   2.05870526
 C   3.13576610   1.86435275  -2.49716947
 H   3.95536050   1.14759220  -2.57739471
 H   2.19403690   1.30948263  -2.54067683
 H   3.17907987   2.55403514  -3.33964471
 O   2.21203734   3.63220467  -1.16092083
 H   1.36811844   3.17024077  -1.11925085
 N   4.83223757   1.96518388   1.56472622
 H   5.39131082   1.70624296   0.77231461
 C   5.55236705   2.67254552   2.61882199
 H   5.05459555   2.46852364   3.57099584
 C   5.45518371   4.17517228   2.34713403
 C   7.00581108   2.16577260   2.69069186
 H   7.38462764   2.20196061   1.66547327
 O   5.47389119   4.63189798   1.21352641
 C   7.91847591   3.02254670   3.56789325
 H   7.54104043   3.06272417   4.59471062
 H   8.01789105   4.04617634   3.19753811
 H   8.91733590   2.58210798   3.59663340
 C   7.02900817   0.72450567   3.19882879
 H   6.69153019   0.70103104   4.23803323
 H   8.04511360   0.32444829   3.16729865
 H   6.38422643   0.06512821   2.61603114
 N   5.35692061   4.94149287   3.47212670
 H   5.72248311   4.60044511   4.35005720
 C   5.52283222   6.36355747   3.41080994
 H   5.93439663   6.64903476   2.43653769
 C   6.53897931   6.73110382   4.53604330
 C   4.23123255   7.14240265   3.67572091
 H   4.47321093   8.20750529   3.63793793
 H   3.88499254   6.93302702   4.69408278
 O   6.95745774   7.89031596   4.54056078
 C   3.11122549   6.80726920   2.69572292
 H   2.94064155   5.73027114   2.70240552
 H   2.18773690   7.27289585   3.05168658
 C   3.39583879   7.26389521   1.27505783
 H   3.37571308   8.35605089   1.23123517
 H   4.39972697   6.95399093   0.97461203
 C   2.41278594   6.68796080   0.27580107
 H   2.50090084   5.60112915   0.28568851
 H   2.64419229   7.03841818  -0.73312262
 N   1.00292897   7.01233132   0.60169161
 H   0.36644618   6.76231011  -0.15541967
 H   0.70039176   6.50858664   1.43265603
 H   0.89787366   8.00685630   0.79637593
 O   6.80215300   5.79525261   5.32548271
 H   0.74411245  -3.60543286  -7.52983173
