98
100
N         -4.74942       -2.75779       -0.17420
H         -3.76539       -3.50218       -0.07550
H         -5.59766       -3.23833       -0.49092
H         -4.86797       -2.31766        0.75880
C         -4.33423       -1.64254       -1.11188
H         -3.65022       -2.08355       -1.84375
C         -3.60561       -0.63072       -0.21090
C         -5.55237       -0.96787       -1.76503
H         -5.22304       -0.13768       -2.39625
H         -6.09552       -1.68135       -2.39346
H         -6.22669       -0.57470       -0.99664
O         -3.71049       -0.70171        1.04195
N         -2.93006        0.33350       -0.85431
H         -2.71832        0.32233       -1.85634
C         -2.27977        1.43131       -0.13783
H         -2.97362        1.90175        0.56249
C         -1.74630        2.37373       -1.21439
C         -1.00663        0.90862        0.62003
H         -0.23438        0.73827       -0.13248
H         -1.29229       -0.05910        1.03491
O         -1.67454        1.99993       -2.41669
C         -0.57778        1.79442        1.74927
C          0.38701        2.78254        1.80726
H          1.03453        3.19053        1.04964
C         -1.18473        1.72731        3.06324
C         -0.52880        2.69358        3.88951
C         -2.20138        0.91131        3.59539
H         -2.74251        0.23215        2.94315
N          0.41609        3.32051        3.09484
H          1.00653        4.09432        3.37050
C         -1.83860        1.98502        5.76107
H         -2.11836        2.07565        6.80427
C         -0.85338        2.82641        5.24449
H         -0.36727        3.56442        5.87173
C         -2.50935        1.04396        4.94552
H         -3.28897        0.43107        5.38145
N         -1.19173        3.50875       -0.76026
H         -1.20481        3.78380        0.22304
C         -0.19225        4.25784       -1.54721
H         -0.54868        4.35865       -2.57564
C          1.16027        3.47103       -1.53429
C         -0.02135        5.62590       -0.87911
H         -0.83067        6.28913       -1.20605
H          0.94995        6.04019       -1.16184
O          2.15031        3.90527       -0.90766
O         -0.09450        5.37867        0.57009
H         -0.15036        6.25329        1.03484
N          1.09151        2.30689       -2.22318
H          0.17254        2.04067       -2.60038
C          2.17716        1.33675       -2.46467
H          2.71769        1.62194       -3.37729
C          1.48214       -0.01416       -2.66591
C          3.23548        1.20063       -1.31463
H          3.59462        2.21338       -1.12739
O          0.41666       -0.30606       -2.07494
C          2.61305        0.64064       -0.02279
H          2.28237       -0.38802       -0.18720
H          3.36777        0.64483        0.77294
H          1.77296        1.24965        0.30330
C          4.39977        0.27717       -1.74324
H          4.06284       -0.76452       -1.75406
H          5.21388        0.36788       -1.01646
H          4.80261        0.55535       -2.72618
N          2.14073       -0.88647       -3.46423
H          3.00816       -0.61117       -3.91175
C          1.76753       -2.31177       -3.50199
H          0.85643       -2.44197       -4.09255
C          1.53833       -2.77495       -2.04164
C          2.93799       -3.11254       -4.09229
H          2.66496       -4.16815       -4.17506
H          3.79321       -3.02120       -3.41575
H          3.20574       -2.74285       -5.08793
O          2.42348       -2.57203       -1.17608
N          0.35875       -3.38746       -1.86547
H         -0.36240       -3.33276       -2.59883
C         -0.30319       -3.68271       -0.58854
H          0.02682       -4.62791       -0.14719
C         -1.81082       -3.76649       -0.95445
C         -0.20307       -2.51876        0.43664
H         -0.11410       -1.60238       -0.15032
H         -1.15011       -2.50791        0.98515
O         -2.58688       -3.99322        0.06704
C          0.95412       -2.62932        1.44612
H          0.84623       -3.54901        2.03450
H          1.89115       -2.64872        0.88456
C          0.87442       -1.41610        2.38349
H         -0.11124       -1.38464        2.86154
H          1.01989       -0.49095        1.82043
N          1.89675       -1.49822        3.46303
H          2.73833       -2.03069        3.26102
N          0.82210        0.07046        4.78404
H          0.56137        0.43810        5.69285
H          0.26652        0.43181        4.00716
N          2.64216       -1.10305        5.63353
H          2.69779       -0.49679        6.44280
H          3.23964       -1.92095        5.61638
C          1.78454       -0.84007        4.62027
O         -2.17555       -3.49367       -2.13128
