89
91
N         -2.18454       -2.70995       -0.25294
H         -2.92428       -2.82787       -0.94453
H         -0.73579       -3.39754       -0.83103
H         -2.42212       -3.30042        0.54326
C         -2.11676       -1.30305        0.19275
H         -3.11768       -0.93142        0.45184
C         -1.54483       -0.43472       -0.93670
C         -1.19607       -1.16256        1.42074
H         -1.35794       -2.01764        2.08834
H         -0.16308       -1.24390        1.07306
O         -0.55010       -0.75194       -1.59190
C         -1.37286        0.14257        2.21670
H         -1.38815        0.98564        1.50905
C         -2.68916        0.15700        3.00387
H         -2.70660       -0.65920        3.73641
H         -3.56758        0.05324        2.35881
H         -2.79996        1.09816        3.55333
C         -0.17460        0.34319        3.15238
H         -0.06519       -0.51098        3.83196
H          0.75335        0.45891        2.58365
H         -0.29938        1.24362        3.76271
N         -2.15970        0.76395       -1.10152
H         -3.05365        0.91601       -0.64593
C         -1.85193        1.64181       -2.22446
H         -2.14909        1.16091       -3.16212
C         -0.36145        1.92146       -2.37955
C         -2.62411        2.97740       -2.07933
H         -2.22984        3.51816       -1.21051
H         -2.39173        3.57867       -2.96368
O          0.12493        2.04795       -3.50755
C         -4.10202        2.77450       -1.94104
C         -5.02486        2.70403       -2.95779
H         -4.88894        2.84087       -4.02175
C         -4.82312        2.52454       -0.71394
C         -6.18510        2.30440       -1.06709
C         -4.45856        2.47160        0.64551
H         -3.43408        2.66433        0.95470
N         -6.27101        2.41911       -2.43970
H         -7.12345        2.36650       -2.97624
C         -6.77609        1.97851        1.21857
H         -7.51713        1.77173        1.98426
C         -7.16933        2.03183       -0.11332
H         -8.20419        1.87021       -0.40030
C         -5.43586        2.19860        1.59503
H         -5.16728        2.16576        2.64604
N          0.37101        2.11250       -1.25635
H          0.01125        1.82442       -0.35419
C          1.78030        2.47877       -1.30727
H          1.90325        3.20618       -2.11879
C          2.69750        1.27359       -1.61967
C          2.17168        3.10098        0.03349
H          1.52373        3.95755        0.23403
H          3.20964        3.44855       -0.00825
O          3.71296        1.05763       -0.92410
O          1.96924        2.17329        1.09127
H          2.67894        1.51591        0.99833
N          2.31409        0.50768       -2.64574
H          1.52731        0.85201       -3.20140
C          3.00536       -0.70442       -3.07978
H          2.29816       -1.22090       -3.73904
C          3.25952       -1.66949       -1.90346
C          4.27898       -0.39470       -3.86665
H          4.77859       -1.31883       -4.16362
H          4.97010        0.20564       -3.26769
H          4.02629        0.17860       -4.76231
O          4.35558       -2.25409       -1.79403
N          2.24200       -1.86323       -1.05825
H          1.32262       -1.48379       -1.29503
C          2.28844       -2.86494        0.01200
H          3.02818       -3.61422       -0.28847
C          0.90589       -3.53156        0.11083
C          2.65459       -2.28012        1.39566
H          1.79176       -1.72532        1.77577
H          2.78914       -3.12256        2.08120
O          0.45821       -3.94330        1.16296
C          3.86699       -1.34780        1.41280
H          3.69893       -0.57541        0.65647
H          3.89515       -0.82879        2.37940
C          5.21944       -2.04000        1.18299
H          5.12512       -2.82938        0.43181
H          5.55881       -2.51935        2.10805
C          6.32119       -1.08334        0.73446
H          6.43368       -0.23105        1.41017
H          7.28264       -1.59574        0.65532
N          6.01779       -0.52377       -0.63807
H          6.83877       -0.08379       -1.05933
H          5.64732       -1.28025       -1.26737
H          5.23861        0.16771       -0.64029
O          0.25263       -3.51536       -1.04554
