118
120
N         -3.56388        0.59688       -6.63491
H         -3.54350        1.60802       -6.52037
H         -4.00294        0.37352       -7.52590
H         -2.02711       -0.22510       -6.65678
C         -4.34846       -0.03021       -5.56538
H         -5.40170        0.29254       -5.58717
C         -3.72817        0.36276       -4.21920
C         -4.30550       -1.60266       -5.74964
H         -3.46990       -1.98617       -5.14937
O         -2.57495        0.80163       -4.14268
C         -5.60407       -2.27094       -5.31223
H         -5.82846       -2.08608       -4.25600
H         -6.44131       -1.90933       -5.91940
H         -5.52526       -3.35222       -5.45412
O         -4.09896       -1.93404       -7.11286
H         -3.13576       -1.95641       -7.25786
N         -4.50098        0.14937       -3.12615
H         -5.43404       -0.21903       -3.24730
C         -4.04118        0.40832       -1.75426
H         -3.34412        1.24772       -1.83829
C         -3.21951       -0.80236       -1.23527
C         -5.22019        0.83938       -0.85125
H         -5.63259        1.73353       -1.34346
O         -3.57917       -1.54324       -0.32660
C         -4.75232        1.26974        0.55701
H         -4.37089        0.39290        1.09064
H         -5.64508        1.60084        1.10293
C         -6.34620       -0.20559       -0.74814
H         -5.98434       -1.12680       -0.28696
H         -6.78796       -0.45828       -1.72185
H         -7.16341        0.19278       -0.13726
C         -3.71229        2.39667        0.58596
H         -3.53759        2.72916        1.61475
H         -4.04727        3.26918        0.01071
H         -2.74173        2.08233        0.18421
N         -2.04065       -0.97147       -1.90633
H         -1.79713       -0.29969       -2.63133
C         -1.11378       -2.02381       -1.56135
H         -1.52699       -2.48747       -0.65570
C          0.23949       -1.40660       -1.16875
C         -1.01614       -3.09163       -2.66867
H         -0.40857       -3.95437       -2.36986
H         -0.59431       -2.67590       -3.58958
H         -2.02045       -3.46611       -2.88382
O          0.39278       -0.20343       -0.98097
N          1.29436       -2.27764       -1.01998
H          1.10483       -3.26966       -1.07439
C          2.47845       -1.86213       -0.26945
H          2.15052       -1.34587        0.64110
C          3.34722       -0.83340       -1.01090
C          3.34753       -3.08477        0.11129
H          3.97243       -3.36110       -0.74526
H          2.69096       -3.93893        0.31626
O          4.21229       -0.21813       -0.36839
C          4.23257       -2.80984        1.35519
H          4.39926       -1.73451        1.44496
H          3.72227       -3.14914        2.26314
C          5.61037       -3.43786        1.21100
N          5.83196       -4.59006        1.88465
H          5.14100       -5.00967        2.48842
H          6.73118       -5.04472        1.79454
O          6.47392       -2.93219        0.48735
N          3.14404       -0.67879       -2.33034
H          2.38610       -1.19368       -2.76629
C          3.82526        0.33007       -3.12988
H          4.87011        0.36256       -2.80806
C          3.29191        1.76499       -2.92274
C          3.80552       -0.05186       -4.63373
H          4.42446       -0.94757       -4.75790
H          4.30814        0.76585       -5.16008
O          3.93070        2.69838       -3.43115
C          2.42392       -0.29773       -5.20183
C          1.97659       -1.59619       -5.48615
H          2.64730       -2.43988       -5.33214
C          1.54353        0.76666       -5.45911
H          1.87283        1.78810       -5.28693
C          0.69923       -1.83267       -5.99606
H          0.36959       -2.83897       -6.23688
C          0.26295        0.54664       -5.95246
H         -0.40777        1.38137       -6.12849
O         -1.40846       -1.02139       -6.71184
C         -0.17502       -0.76081       -6.22120
N          2.16065        1.93545       -2.21610
H          1.67636        1.14125       -1.80233
C          1.54285        3.25910       -2.04790
H          1.70440        3.80159       -2.98584
C          2.24584        4.04433       -0.91089
C          0.04976        3.11461       -1.77027
H         -0.40870        4.10472       -1.69934
H         -0.43709        2.55678       -2.57638
H         -0.11785        2.59938       -0.82140
O          1.77626        4.13102        0.21533
N          3.43333        4.61724       -1.28082
H          3.73851        4.47806       -2.23928
C          4.14772        5.52843       -0.41061
H          3.65392        5.43507        0.56528
C          3.99238        7.00151       -0.81250
C          5.64393        5.19477       -0.24844
H          6.06089        5.93199        0.44148
H          6.15840        5.36298       -1.20528
O          4.74112        7.87967       -0.44599
C          5.91055        3.76063        0.25792
H          5.01360        3.35107        0.73690
H          6.69239        3.77439        1.02817
C          6.33531        2.82013       -0.88123
H          7.26887        3.16229       -1.34517
H          5.58820        2.82088       -1.67832
N          6.49867        1.42163       -0.46192
H          5.65351        0.83593       -0.46784
N          8.72044        1.61975        0.22991
H          9.62736        1.17831        0.26926
H          8.71032        2.61174        0.05107
N          7.68623       -0.44445        0.23838
H          8.45617       -0.81346        0.77722
H          6.91114       -1.10081        0.10902
C          7.61679        0.87091       -0.00269
O          2.91544        7.22531       -1.59388
H          2.88839        8.18954       -1.74688
