21
conf-433
 N  -0.60648576  -4.49539039   2.15078422
 H  -1.24826439  -4.82696083   1.44063671
 H   0.31380746  -4.76519300   1.81590077
 C  -0.65018101  -3.04584816   2.20838173
 H  -1.68907537  -2.73142624   2.37169644
 C  -0.13471424  -2.38831102   0.92085474
 C   0.17488889  -2.54250437   3.40753971
 H   1.16574853  -3.00117741   3.34416434
 H   0.31218639  -1.45923675   3.33649458
 O   0.63211882  -2.95673121   0.16534951
 C  -0.46311991  -2.87153609   4.73011664
 C  -0.10166001  -3.87229457   5.58685971
 H   0.70148228  -4.58815244   5.50074022
 C  -1.60051931  -2.21652707   5.32661213
 C  -1.88811313  -2.88753882   6.52667319
 C  -2.39471064  -1.12581506   4.94438637
 H  -2.18954897  -0.56968197   4.03301372
 N  -0.95945410  -3.89418450   6.66586926
 H  -0.90827863  -4.53643026   7.43265794
 C  -3.72662197  -1.44800767   6.95275923
 H  -4.56076972  -1.13312832   7.56815221
 C  -2.95205297  -2.52421794   7.35655013
 H  -3.15610261  -3.06348592   8.27486468
 C  -3.44817331  -0.75327539   5.76181225
 H  -4.07246250   0.08666416   5.48130566
 N  -0.55910910  -1.11392484   0.71916800
 H  -1.28790045  -0.75088523   1.31106485
 C  -0.22546999  -0.36996276  -0.49215809
 H  -0.66764506   0.61526013  -0.32727258
 C   1.30534296  -0.20885252  -0.55871042
 C  -0.83944363  -0.94143952  -1.79097439
 H  -0.30956334  -1.86671094  -2.01810113
 O   1.98858985  -0.51289047  -1.52706481
 C  -0.65685771   0.00773632  -2.99354010
 H   0.37049958  -0.04533756  -3.36011845
 H  -1.28249695  -0.37997875  -3.80626700
 C  -2.32274624  -1.27425888  -1.61467033
 H  -2.90035858  -0.38297068  -1.35635417
 H  -2.71910715  -1.67133926  -2.55257011
 H  -2.48875392  -2.03299795  -0.84896873
 C  -1.02998641   1.46181503  -2.72011987
 H  -1.11726049   2.02148140  -3.65277698
 H  -0.26981605   1.96042187  -2.11246842
 H  -1.98121640   1.53943581  -2.19013421
 N   1.84233540   0.34460895   0.56274062
 H   1.31408423   0.36224759   1.41533955
 C   3.25730239   0.60139257   0.68270249
 H   3.77645373   0.02730155  -0.09119955
 C   3.72334532   0.12894076   2.04114582
 C   3.60989178   2.08692127   0.51151111
 H   3.07483009   2.67174443   1.26331784
 H   4.67590548   2.19941094   0.71921986
 O   2.99653109  -0.15858245   2.96155707
 C   3.30584364   2.61904088  -0.88293608
 H   2.24135452   2.53345119  -1.09646384
 H   3.82264639   2.01376964  -1.62607930
 C   3.72056925   4.07312209  -1.04062156
 H   3.15035729   4.68856528  -0.34139924
 H   4.77724610   4.19975151  -0.78270681
 N   3.47310719   4.64403915  -2.37679620
 H   2.51485723   4.90088313  -2.56682581
 N   5.26007890   3.49431416  -3.34786231
 H   5.94198378   3.46673014  -4.08896776
 H   5.60660477   3.29813089  -2.42341167
 N   3.76451571   4.72801217  -4.67253415
 H   3.19272237   5.56215372  -4.69092852
 H   4.40576026   4.63776660  -5.44682515
 C   4.18707908   4.29912383  -3.45784364
 O   5.06486683   0.08375338   2.12792585
 H   5.26554984  -0.20225269   3.02757066
