21
conf-862
 N  -2.31367064  -3.56247652   2.40487091
 H  -2.68369204  -3.73401317   3.33293682
 H  -3.08676815  -3.25382977   1.82724049
 C  -1.27953286  -2.54283390   2.46837957
 H  -1.59233214  -1.65415772   3.04084000
 C  -0.92556200  -2.07348842   1.06324737
 C  -0.04319994  -3.11777265   3.17452637
 H   0.73806575  -2.36861984   3.17835028
 H  -0.33774022  -3.29532492   4.21545545
 O  -0.78040150  -2.84604119   0.13340641
 C   0.47915471  -4.40598676   2.59224437
 C  -0.04068158  -5.65175015   2.83168064
 H  -0.89354168  -5.94305001   3.42482672
 C   1.61660036  -4.60728703   1.72494207
 C   1.73103933  -5.99208876   1.49107386
 C   2.53819139  -3.74386247   1.11257160
 H   2.46266382  -2.66594912   1.22424872
 N   0.70940487  -6.60604136   2.18013400
 H   0.51253738  -7.58848828   2.17356029
 C   3.63104442  -5.66577620   0.10391257
 H   4.42152092  -6.05524369  -0.52620385
 C   2.73272686  -6.54466062   0.68938973
 H   2.79760366  -7.61587686   0.53531703
 C   3.53191613  -4.27926639   0.30703753
 H   4.24122248  -3.61692080  -0.17458294
 N  -0.79660435  -0.71878658   0.96561578
 H  -0.90942742  -0.19008483   1.80999274
 C  -0.28344202   0.02353346  -0.19046194
 H  -0.62592439   1.05175120  -0.04052806
 C   1.23590062   0.01870780  -0.07182035
 C  -0.82055924  -0.43530989  -1.54884418
 H  -0.38801553  -1.40923287  -1.77820678
 O   1.95074132  -0.89514206  -0.47725734
 C  -0.46346389   0.54678508  -2.67488769
 H  -1.00982472   0.21054287  -3.56379461
 H  -0.87769066   1.52577666  -2.41590557
 C  -2.34724697  -0.53845567  -1.50971255
 H  -2.78671984   0.44612122  -1.32715086
 H  -2.71460092  -0.90614993  -2.46978958
 H  -2.69632345  -1.21958986  -0.73808450
 C   1.00899465   0.67838324  -3.03661156
 H   1.11357216   1.18210152  -3.99985652
 H   1.48690441  -0.30003019  -3.11433885
 H   1.56493296   1.26750351  -2.30558231
 N   1.76037191   1.09424994   0.57085678
 H   1.12065184   1.73551823   1.00867046
 C   3.07448336   0.97400982   1.17301025
 H   3.72095706   0.48600838   0.44291765
 C   3.06323103   0.02949192   2.38060647
 C   3.64364092   2.35312925   1.51618811
 H   4.69204253   2.22395906   1.79348483
 H   3.62759757   2.94851611   0.60119692
 O   2.12295231  -0.62304167   2.78878006
 C   2.90095965   3.07864291   2.62506022
 H   2.90751650   2.46679753   3.53083052
 H   1.85747359   3.23144371   2.35230489
 C   3.53641665   4.42257301   2.93103314
 H   4.57700316   4.27073146   3.23249956
 H   3.54309271   5.04896512   2.03072698
 N   2.80274540   5.08403891   4.02729826
 H   1.80784606   4.91331887   4.03054354
 N   4.28586526   6.89341513   4.06849747
 H   4.68079656   7.63867624   4.61834342
 H   4.93650145   6.35014953   3.52734390
 N   2.31667123   6.92386553   5.34623788
 H   1.69595811   6.33704283   5.88640135
 H   2.68183862   7.71777037   5.84873944
 C   3.15535371   6.29590254   4.48764056
 O   4.28295672   0.01047257   2.94073047
 H   4.21999154  -0.59502811   3.68711505
