21
conf-684
 N  -0.59681268  -4.06710763   1.02970011
 H  -0.14376464  -4.45076048   0.20669049
 H  -0.77692527  -4.84296091   1.65800436
 C   0.31930942  -3.12283513   1.65659651
 H  -0.21476062  -2.58894546   2.45437908
 C   0.71606359  -2.14716072   0.56699777
 C   1.58645079  -3.76648930   2.24780038
 H   1.28851417  -4.57683448   2.91865795
 H   2.16224103  -4.19815882   1.42659081
 O   1.28054623  -2.53669966  -0.44797441
 C   2.39883695  -2.74338886   2.97570786
 C   3.40547613  -1.98665469   2.44453406
 H   3.83280999  -2.02333735   1.46109260
 C   2.18930090  -2.24884796   4.31474083
 C   3.09654024  -1.19569960   4.51652526
 C   1.30597537  -2.60499855   5.34011249
 H   0.59681297  -3.41756377   5.21599844
 N   3.82786729  -1.05691184   3.35814407
 H   4.49860501  -0.33940351   3.15990291
 C   2.27193679  -0.84845378   6.71312115
 H   2.28654888  -0.31599272   7.65665421
 C   3.15532279  -0.47722841   5.71103041
 H   3.86072961   0.33470609   5.85359324
 C   1.35734314  -1.90208195   6.53144257
 H   0.68382933  -2.16408841   7.33856796
 N   0.37285706  -0.84361349   0.76921311
 H  -0.20500472  -0.64923128   1.56433392
 C   0.17463945   0.05657312  -0.37043916
 H  -0.05039141   1.02022024   0.09373718
 C   1.48476904   0.22024937  -1.15861671
 C  -1.00942444  -0.33985773  -1.29211914
 H  -0.60610621  -1.04868798  -2.01784263
 O   1.53693582   0.24579651  -2.37927058
 C  -1.53667176   0.87769301  -2.07295583
 H  -0.71677890   1.33039253  -2.63565737
 H  -2.24143761   0.50132542  -2.82564163
 C  -2.14698567  -1.03191200  -0.53391774
 H  -2.46452735  -0.45270970   0.33830227
 H  -3.01277698  -1.13670996  -1.19400263
 H  -1.86799642  -2.03276112  -0.19961264
 C  -2.24297551   1.93090478  -1.22767255
 H  -2.59448448   2.75087963  -1.85735433
 H  -1.58260905   2.35642908  -0.46755750
 H  -3.11200337   1.50915914  -0.71763165
 N   2.59314415   0.37900519  -0.39989819
 H   2.54434728   0.27412018   0.60030690
 C   3.87071152   0.61564558  -1.04254133
 H   3.90024551   0.04400919  -1.97423362
 C   4.98807688   0.15670513  -0.13306370
 C   4.06196275   2.10565581  -1.38112278
 H   3.21154687   2.40104849  -1.99430976
 H   4.01378806   2.68532220  -0.45752783
 O   5.00400912   0.31378575   1.06248197
 C   5.36337017   2.39274414  -2.11570725
 H   5.42349005   1.76836217  -3.00610987
 H   6.22076680   2.13641894  -1.49183145
 C   5.46184377   3.85310103  -2.52801075
 H   4.58752219   4.14189504  -3.12090799
 H   5.45855237   4.48381946  -1.63626892
 N   6.68954768   4.20310217  -3.26477385
 H   7.51943298   4.30931513  -2.69816772
 N   5.96491649   3.17299888  -5.23229327
 H   6.02599937   3.13994881  -6.23742828
 H   5.03515655   3.14590149  -4.84740646
 N   8.14572964   4.02608663  -5.05650090
 H   8.69626605   4.77199956  -4.65209769
 H   8.24782055   3.91861005  -6.05493177
 C   6.91537761   3.81490190  -4.52775054
 O   6.01002004  -0.40274244  -0.80798901
 H   6.67863518  -0.60339226  -0.14087202
