21
conf-883
 N   0.22977933  -4.06320899   2.16568206
 H  -0.22398646  -4.56981563   1.41380023
 H   1.21134887  -4.07330954   1.90975708
 C  -0.21887336  -2.68292710   2.15913264
 H  -1.30820847  -2.66559290   2.26603985
 C   0.14702042  -1.94219042   0.86281701
 C   0.37411070  -1.93060144   3.35419332
 H   1.46374317  -2.03857944   3.31441764
 H   0.16650172  -0.85932733   3.25493579
 O   0.95861763  -2.37376991   0.06442728
 C  -0.15217707  -2.40711011   4.67878756
 C  -1.02326318  -3.43354659   4.94342880
 H  -1.48617938  -4.12460361   4.26002769
 C   0.18299598  -1.82563948   5.95557193
 C  -0.50465471  -2.54972973   6.94209684
 C   1.01077130  -0.75697012   6.32597530
 H   1.55259074  -0.18500904   5.58072461
 N  -1.22933329  -3.52669695   6.30148752
 H  -1.82312831  -4.19637245   6.75473411
 C   0.42323934  -1.18619116   8.64767888
 H   0.53271268  -0.91776131   9.69142676
 C  -0.39960760  -2.24728863   8.30177528
 H  -0.93915415  -2.81897484   9.04871466
 C   1.12028017  -0.44971375   7.67164469
 H   1.75251474   0.37230783   7.98665169
 N  -0.49318074  -0.75876381   0.68316832
 H  -1.19067769  -0.46995093   1.34797604
 C  -0.18097741   0.12368471  -0.43367205
 H  -0.69269477   1.05405513  -0.17483099
 C   1.33772298   0.40788696  -0.45744468
 C  -0.70506934  -0.32911980  -1.82231909
 H   0.13876176  -0.77815803  -2.35587526
 O   2.04333688   0.30328725  -1.45266022
 C  -1.21586493   0.88651013  -2.60990926
 H  -1.59512352   0.52209105  -3.57098408
 H  -2.07935611   1.29063094  -2.07379225
 C  -1.82986790  -1.35967792  -1.75570748
 H  -2.69208196  -0.97408585  -1.20674207
 H  -2.15995663  -1.60163251  -2.76812755
 H  -1.50020062  -2.28919612  -1.29365277
 C  -0.20713800   1.99448649  -2.86663689
 H  -0.66211837   2.79463339  -3.45194043
 H   0.65902265   1.62205824  -3.41827588
 H   0.15632519   2.43343314  -1.93501409
 N   1.85094219   0.81608674   0.72733246
 H   1.33529440   0.72235566   1.58606131
 C   3.26794416   1.06424289   0.87053107
 H   3.82520832   0.31014803   0.30390290
 C   3.59154483   0.91239900   2.33353013
 C   3.65001080   2.45251580   0.32240398
 H   3.18749476   2.51480687  -0.66249224
 H   3.17841148   3.22054333   0.94237847
 O   2.76548316   0.88107983   3.21357472
 C   5.14986913   2.67614464   0.20767538
 H   5.58689908   1.83411076  -0.32798173
 H   5.62397756   2.71029436   1.19061195
 C   5.50909979   3.95960749  -0.53084174
 H   5.11235344   4.82579349   0.00218426
 H   6.59528791   4.09075231  -0.56182421
 N   4.97783004   4.06028610  -1.90408770
 H   4.03228360   4.40708779  -1.97674541
 N   6.39158825   2.39458803  -2.72234971
 H   6.83041180   1.98638482  -3.53232783
 H   7.00564513   2.56773505  -1.94298066
 N   4.65138387   3.23849350  -4.05350386
 H   4.10825014   4.06494042  -4.26508779
 H   5.08135107   2.80146107  -4.85543973
 C   5.35861535   3.24342924  -2.89505993
 O   4.91080727   0.81197476   2.57038517
 H   5.01713018   0.74893010   3.52736899
