21
conf-879
 N  -1.67288235  -2.17202560   2.87232478
 H  -2.16479098  -2.86626584   2.32365199
 H  -1.99839285  -2.27106225   3.82362532
 C  -0.24631299  -2.47250121   2.80000834
 H   0.24619843  -1.97092328   3.64353606
 C   0.37094194  -1.87206378   1.52988531
 C   0.06367677  -3.97898475   2.89974613
 H   1.14209441  -4.11387110   2.78774424
 H  -0.22563888  -4.32302327   3.89828013
 O   1.41595351  -2.29207950   1.04838139
 C  -0.66532108  -4.77296681   1.85551232
 C  -0.21268773  -5.05417983   0.59828193
 H   0.70301436  -4.74072190   0.12702843
 C  -1.97332410  -5.36732372   1.96157447
 C  -2.24669692  -5.99630988   0.73567996
 C  -2.92713063  -5.40913323   2.98326137
 H  -2.74266984  -4.91922554   3.93493767
 N  -1.15764925  -5.78993794  -0.08091880
 H  -1.05921216  -6.14196825  -1.01196930
 C  -4.37179222  -6.70392969   1.52173701
 H  -5.31296409  -7.21946657   1.37352303
 C  -3.44388883  -6.67100106   0.49177811
 H  -3.63598970  -7.14887991  -0.46244093
 C  -4.11709355  -6.08099625   2.75709870
 H  -4.86690010  -6.12304756   3.53692107
 N  -0.30188435  -0.81340004   1.03097760
 H  -1.23190462  -0.66899132   1.38830796
 C   0.08822351  -0.15332626  -0.20343941
 H  -0.53388741   0.74813344  -0.23106046
 C   1.55474801   0.31308483  -0.10055428
 C  -0.20592714  -0.95501601  -1.49746200
 H   0.73056389  -1.42648636  -1.80869277
 O   2.38502417   0.13656544  -0.97971501
 C  -0.70220721  -0.01741359  -2.60908600
 H  -0.91441096  -0.63650202  -3.48762231
 H  -1.66270244   0.39580602  -2.28731291
 C  -1.26036508  -2.04575341  -1.30007138
 H  -2.19133251  -1.62567863  -0.90927563
 H  -1.47881333  -2.52508549  -2.25630395
 H  -0.91607108  -2.82343998  -0.62179914
 C   0.22922627   1.11126499  -3.01856215
 H  -0.19712993   1.67353665  -3.85002138
 H   1.20609897   0.73296123  -3.32800733
 H   0.38977053   1.81399142  -2.19915948
 N   1.82875371   1.00145193   1.03517642
 H   1.13883416   1.02992434   1.75995169
 C   3.15323239   1.52191483   1.29631305
 H   3.78832933   1.12386424   0.50188102
 C   3.65628303   0.96319218   2.61548391
 C   3.20096470   3.04784879   1.29596855
 H   2.50234990   3.41648670   2.04942961
 H   4.19841562   3.35067011   1.61720082
 O   3.73029227   1.56867255   3.65349211
 C   2.89096197   3.63555163  -0.06879215
 H   1.89961364   3.31546040  -0.40477455
 H   3.60996221   3.25147008  -0.79281029
 C   2.91684294   5.15659185  -0.09680935
 H   2.67032332   5.52599997  -1.09674586
 H   2.14979178   5.55322835   0.57166300
 N   4.18547051   5.76979383   0.34271214
 H   4.28413781   5.87353876   1.34208348
 N   5.34122249   5.07377060  -1.55771038
 H   6.15091269   5.19151370  -2.14513431
 H   4.46050063   5.01029260  -2.04118785
 N   6.50115143   5.96339295   0.27753198
 H   6.44766909   6.61434125   1.04967548
 H   7.31364438   6.07434779  -0.31087770
 C   5.33635496   5.61713730  -0.32478981
 O   3.98583130  -0.34133486   2.49568495
 H   4.24978760  -0.63786790   3.37612033
