21
conf-197
 N  -0.56409270  -0.77025334   4.29141311
 H  -0.54259434  -1.51248898   4.98146204
 H   0.37695554  -0.66928499   3.92961708
 C  -1.50013343  -1.15209251   3.23469078
 H  -1.20957148  -2.09195825   2.73490069
 C  -1.51081777  -0.02131077   2.20397849
 C  -2.88240089  -1.31982317   3.86294822
 H  -3.14692340  -0.37059943   4.33082877
 H  -3.62620651  -1.52700862   3.09163672
 O  -2.20485330   0.98068864   2.33590698
 C  -2.87661771  -2.40466502   4.89124138
 C  -2.55576309  -2.25094696   6.21052486
 H  -2.29862099  -1.35301367   6.74992821
 C  -3.10565860  -3.81320108   4.68744348
 C  -2.90564450  -4.45137607   5.92335362
 C  -3.45490997  -4.57782759   3.56631896
 H  -3.62042341  -4.11667430   2.59783050
 N  -2.58355653  -3.47536965   6.83996871
 H  -2.34288609  -3.63905446   7.79840194
 C  -3.38185167  -6.56772732   4.96229723
 H  -3.49436840  -7.64211311   5.04475871
 C  -3.03816156  -5.83175955   6.08565940
 H  -2.87865242  -6.30162066   7.04992034
 C  -3.58860261  -5.94719797   3.71651913
 H  -3.85816727  -6.55467932   2.86082568
 N  -0.67591922  -0.20327010   1.14729360
 H   0.00281836  -0.94832063   1.17088676
 C  -0.35864961   0.87700369   0.23728210
 H  -0.78182381   1.78527919   0.66515900
 C   1.16457009   1.01910868   0.17418126
 C  -0.95859129   0.68085565  -1.17109204
 H  -0.56893581   1.50758032  -1.78278606
 O   1.91771542   0.06794202   0.33387627
 C  -2.48703377   0.79333201  -1.15697311
 H  -2.84289012   0.53159019  -2.15806059
 H  -2.88777071   0.03150251  -0.48238277
 C  -0.53977333  -0.64347381  -1.80925195
 H  -0.99778155  -1.47752316  -1.27272474
 H  -0.87361138  -0.68513274  -2.84733352
 H   0.54354924  -0.77613532  -1.78460081
 C  -3.02308490   2.16981804  -0.78382278
 H  -4.11055201   2.19279458  -0.87665926
 H  -2.61715655   2.94366943  -1.44167660
 H  -2.77428649   2.43253890   0.24619191
 N   1.60847625   2.26422679  -0.14643977
 H   0.98734321   3.05425678  -0.05949196
 C   3.02128357   2.57700781  -0.12822464
 H   3.54397908   1.77662571   0.40405536
 C   3.20746054   3.87418337   0.62890534
 C   3.62623106   2.70261090  -1.53110247
 H   3.12732219   3.50642583  -2.07630777
 H   4.67061069   2.99524733  -1.41324362
 O   2.32550376   4.64238439   0.91756249
 C   3.55369030   1.40672645  -2.32615890
 H   2.51321281   1.14608589  -2.52580593
 H   3.97910673   0.59503264  -1.73228102
 C   4.29790766   1.50772831  -3.64602833
 H   3.89118511   2.33172956  -4.24562888
 H   5.34924565   1.73553298  -3.44782296
 N   4.20352820   0.22955981  -4.37594593
 H   3.32092410  -0.24784396  -4.27203377
 N   5.60047816   0.98724669  -6.09478071
 H   6.24163353   0.72761901  -6.82641178
 H   5.88883810   1.74687606  -5.50234284
 N   4.47990125  -1.06789337  -6.27277672
 H   4.16968475  -1.86646383  -5.73654996
 H   5.07040038  -1.29629041  -7.05719434
 C   4.78264603   0.05350059  -5.57605132
 O   4.50264920   4.09117861   0.93037344
 H   4.53100350   4.93958634   1.39051067
