21
conf-584
 N  -4.95228363   0.63245113   4.66374101
 H  -5.68777409   0.15152184   4.14831260
 H  -4.39295834  -0.08019066   5.12475720
 H  -5.38710769   1.23853708   5.35863273
 C  -4.11646953   1.41788597   3.74408999
 H  -4.69265090   2.27357798   3.38270563
 C  -3.74587963   0.53640293   2.54993588
 C  -2.84668750   1.95441662   4.41357230
 H  -2.13640607   1.13567995   4.56043168
 H  -2.38404781   2.65482852   3.71302624
 O  -3.93143011  -0.66971932   2.56543017
 C  -3.08457982   2.65688747   5.75154179
 H  -2.18374381   3.18684591   6.06245728
 H  -3.33422006   1.92036867   6.51997665
 C  -4.23281453   3.60464036   5.61965317
 O  -5.37521716   3.29785988   5.86241973
 O  -3.89005056   4.81551750   5.12804160
 N  -3.20933309   1.18708191   1.48786956
 H  -3.01276624   2.17331225   1.54790440
 C  -2.62137887   0.44824827   0.38708648
 H  -3.07349253  -0.54240625   0.41850234
 C  -1.12796317   0.23021774   0.67072018
 C  -2.95815213   1.11970677  -0.94985751
 H  -4.04046497   1.03236003  -1.07643178
 H  -2.50888027   0.52945645  -1.75546093
 O  -0.76077761  -0.04810637   1.81174337
 C  -2.56053960   2.56785169  -1.04969321
 C  -1.40349340   3.07886460  -1.56878431
 H  -0.55623607   2.56924311  -1.98117093
 C  -3.35300870   3.70501571  -0.64771792
 C  -2.61849527   4.86370159  -0.95659983
 C  -4.61344515   3.83321950  -0.05350348
 H  -5.20055864   2.95647123   0.21281497
 N  -1.43091453   4.45344817  -1.51752199
 H  -0.70366092   5.06366533  -1.85317154
 C  -4.35043960   6.24783135  -0.10957128
 H  -4.76058992   7.22645496   0.10836757
 C  -3.09664669   6.14897488  -0.69428727
 H  -2.51298197   7.02904980  -0.93960888
 C  -5.10182168   5.10207067   0.20574724
 H  -6.07775987   5.21731471   0.65969343
 N  -0.25675278   0.33820748  -0.33813335
 H  -0.53694479   0.46765065  -1.29588154
 C   1.18570082   0.36126863  -0.12045167
 H   1.42990912   1.01579629   0.71906959
 C   1.76021887   0.97274403  -1.38664432
 C   1.75091588  -1.03918545   0.20126203
 H   1.14056792  -1.77019198  -0.32576102
 O   1.20115080   0.83455057  -2.46914182
 C   3.22009437  -1.25267478  -0.10764505
 H   3.37026913  -1.25323299  -1.19046870
 H   3.55632514  -2.21751821   0.27440580
 H   3.84043205  -0.46856409   0.32589454
 O   1.51834063  -1.24671947   1.65457382
 H   0.62968755  -0.78332896   1.88708812
 N   2.91526777   1.66357661  -1.21358871
 H   3.49990168   1.50388117  -0.40193803
 C   3.73239951   2.09804408  -2.31306988
 H   3.53994938   1.49246507  -3.21025041
 C   5.20333016   1.87556372  -1.83355234
 C   3.55775940   3.57892830  -2.65588143
 H   4.36631609   3.86065879  -3.33172449
 H   3.67090331   4.17546720  -1.74546637
 O   6.09697781   2.08116109  -2.65413918
 C   2.20542191   3.86826142  -3.28766725
 H   2.13366539   3.37076695  -4.25873403
 H   1.41474531   3.44163480  -2.66963526
 C   1.95085801   5.35316839  -3.45861158
 H   0.91191790   5.54040299  -3.76201780
 H   2.09919924   5.85139369  -2.49540251
 N   2.88324493   5.92274082  -4.41241912
 H   2.98958683   5.39459433  -5.25959938
 N   3.82303842   7.66307822  -5.62236999
 H   3.74420917   8.65119332  -5.81168865
 H   3.76293865   7.10239981  -6.45591069
 N   2.48670209   8.20562392  -3.81744366
 H   1.93348851   7.79384058  -3.07656895
 C   2.98673655   7.29838889  -4.57071737
 O   5.30582598   1.50192484  -0.64226782
 H  -4.70701435   5.32489970   5.05072189
 H   1.44851512  -2.18424340   1.91315196
