21
conf-549
 N  -5.05658711   0.37579833   4.36789993
 H  -5.92517241   0.34611603   3.83282152
 H  -4.70803200  -0.58143607   4.44232986
 H  -5.26206603   0.71992442   5.30461351
 C  -4.04626828   1.20859995   3.69255663
 H  -4.47790315   2.19150844   3.47552588
 C  -3.66457343   0.55433869   2.36616790
 C  -2.79983130   1.40976150   4.55274609
 H  -2.43049683   0.42875113   4.85455904
 H  -2.02107526   1.86162515   3.94175743
 O  -3.90679289  -0.62500490   2.13521819
 C  -3.05881810   2.28418464   5.77789004
 H  -3.77500700   1.82886163   6.46526844
 H  -3.47263143   3.24651228   5.46293232
 C  -1.81176575   2.56356428   6.56586100
 O  -1.67159605   2.38198274   7.74837027
 O  -0.82811349   3.08372432   5.79300329
 N  -3.05461983   1.38666546   1.47332339
 H  -2.71148136   2.26244618   1.83466062
 C  -2.27223870   0.86938648   0.37126463
 H  -2.52479745  -0.18182178   0.25186393
 C  -0.78537961   1.00296276   0.73005516
 C  -2.56396692   1.59744128  -0.94517290
 H  -1.83415534   1.26774027  -1.69362351
 H  -2.40097876   2.67070062  -0.81673294
 O  -0.38442783   1.77426175   1.58443980
 C  -3.95468444   1.33419183  -1.45217258
 C  -4.92125480   0.51206560  -0.93300508
 H  -4.88881792  -0.09212490  -0.04291172
 C  -4.52938229   1.92198153  -2.63853671
 C  -5.83594790   1.42633998  -2.76719709
 C  -4.03414564   2.82700992  -3.58577535
 H  -3.02636823   3.22349537  -3.50767219
 N  -6.05502938   0.57219570  -1.71101497
 H  -6.89901393   0.05424010  -1.55342495
 C  -6.16854237   2.69634143  -4.74383425
 H  -6.78954198   3.01216504  -5.57335504
 C  -6.67825104   1.80039927  -3.81601841
 H  -7.68473239   1.40508210  -3.89660665
 C  -4.86090036   3.20408384  -4.63019813
 H  -4.49983543   3.90278468  -5.37567643
 N   0.04961189   0.19591971   0.00686162
 H  -0.32267995  -0.27912436  -0.79975268
 C   1.49904338   0.37770026   0.03662146
 H   1.70596183   1.37984263   0.39385583
 C   1.99519953   0.16564066  -1.38462903
 C   2.19363576  -0.64037112   0.95248130
 H   3.27258341  -0.52013067   0.84518223
 O   1.87904345  -0.95543658  -1.92521731
 C   1.78206410  -0.52443908   2.40237718
 H   2.09719062   0.43987065   2.80807206
 H   2.24584861  -1.31689583   2.98964829
 H   0.70157889  -0.59936543   2.50748626
 O   1.88284480  -2.00455508   0.45788911
 H   0.94314816  -2.17015405   0.69714168
 N   2.49405822   1.21755757  -2.02732711
 H   2.72257020   2.11133272  -1.60458926
 C   3.02372683   1.12538172  -3.36773709
 H   3.72093980   0.27769873  -3.43893402
 C   3.79295323   2.46436930  -3.57589745
 C   1.93421623   0.93292662  -4.42800715
 H   1.35972282   1.85910812  -4.53337019
 H   1.25370406   0.18134218  -4.03129355
 O   4.36624018   2.62431215  -4.66011903
 C   2.49809445   0.47744387  -5.76853917
 H   3.23340840   1.19493576  -6.13861091
 H   3.02628282  -0.46829961  -5.61592654
 C   1.42599189   0.26516394  -6.83036934
 H   0.88458557   1.19765733  -7.01012382
 H   1.88204851  -0.01642667  -7.78321370
 N   0.43154105  -0.74462204  -6.49583473
 H  -0.17169267  -0.46895895  -5.73836945
 N  -0.20110065  -2.85266045  -5.79586621
 H  -0.00430764  -3.83784087  -5.90425293
 H  -1.14202276  -2.61627176  -6.07021794
 N   1.87216851  -2.64134513  -6.81165544
 H   2.50236476  -1.94362487  -7.19074659
 C   0.78589837  -2.09121386  -6.41607654
 O   3.76049690   3.24743114  -2.60412624
 H  -0.08136925   3.24748520   6.38286335
 H   1.88533226  -1.85637623  -0.54765664
