21
conf-746
 N  -5.59842840   3.16270748   2.50139348
 H  -6.10371394   3.12967918   1.61332150
 H  -5.88020736   2.35271089   3.05766330
 H  -5.87772669   4.00734349   2.99765465
 C  -4.13215806   3.12829330   2.29623755
 H  -3.86673896   3.90866981   1.58177413
 C  -3.73422985   1.76971065   1.73960818
 C  -3.41131090   3.36839158   3.61923709
 H  -3.75992073   4.32710440   4.01892869
 H  -3.74758367   2.58998502   4.31012151
 O  -4.06988203   0.72443973   2.31311029
 C  -1.88245193   3.36817972   3.58984379
 H  -1.54849508   2.38414800   3.24200310
 C  -1.31658943   4.42953084   2.64979557
 H  -1.69391875   5.42064099   2.91794067
 H  -1.56679880   4.22985366   1.60803960
 H  -0.22527806   4.45432587   2.71815886
 C  -1.35574665   3.57594565   5.00898298
 H  -1.66437827   4.55310254   5.38698485
 H  -1.73836900   2.80924641   5.68589018
 H  -0.26484103   3.53077518   5.03303816
 N  -3.00890645   1.81179948   0.58842018
 H  -2.62066241   2.70547986   0.33180157
 C  -2.22677205   0.68600964   0.12112600
 H  -2.51408472  -0.18395133   0.70521712
 C  -0.74445880   0.99207236   0.35082412
 C  -2.46130444   0.39035239  -1.36406205
 H  -2.25450532   1.28829319  -1.95211608
 H  -1.72685709  -0.35661736  -1.68618756
 O  -0.31263315   2.13056397   0.40837807
 C  -3.85157921  -0.10970992  -1.64440389
 C  -4.85305611  -0.41416104  -0.75863111
 H  -4.85930807  -0.31753537   0.31328283
 C  -4.38491221  -0.39125289  -2.95652160
 C  -5.70017573  -0.85177186  -2.79043459
 C  -3.84834832  -0.27972076  -4.24531633
 H  -2.83555662   0.07743548  -4.40159522
 N  -5.96576152  -0.85246635  -1.44090397
 H  -6.82678885  -1.15014870  -1.02187623
 C  -5.95712263  -1.10050778  -5.13615086
 H  -6.55091689  -1.37232956  -6.00044327
 C  -6.50888865  -1.21486586  -3.86906649
 H  -7.52225234  -1.56919653  -3.71658203
 C  -4.64125711  -0.63760211  -5.32222153
 H  -4.24640788  -0.56071939  -6.32842811
 N   0.06196478  -0.09544590   0.45668992
 H  -0.31983344  -1.00316554   0.27496969
 C   1.50046031   0.06059994   0.39174291
 H   1.81739676   0.67579125   1.23666454
 C   1.91130623   0.75016388  -0.90292774
 C   2.15927976  -1.30555021   0.48520264
 H   3.25000809  -1.19756661   0.45894934
 H   1.85968333  -1.89550305  -0.39322315
 O   1.33902255   0.54740824  -1.96421205
 O   1.71141424  -1.91079118   1.69219356
 H   2.06230090  -2.80456846   1.71917651
 N   2.95901512   1.61346483  -0.78494414
 H   3.53754552   1.50683013   0.02788384
 C   3.65701447   2.04926994  -1.98364043
 H   2.92300534   2.54430569  -2.62466697
 C   4.19021576   0.82227016  -2.72933851
 C   4.78004497   3.00618134  -1.61575029
 H   5.32935887   3.32317136  -2.50568775
 H   5.48152538   2.51179876  -0.93980618
 H   4.37620268   3.89084502  -1.12066609
 O   4.50874301  -0.21952572  -2.16592162
 N   4.28041426   1.01358748  -4.07770330
 H   4.45929874   1.93396380  -4.46378418
 C   4.86145968   0.02171095  -4.93151032
 H   5.38904344  -0.72568470  -4.32944644
 C   5.86190950   0.77583626  -5.85336482
 C   3.83553500  -0.66807410  -5.83698982
 H   3.42309307   0.07160328  -6.53302581
 H   4.37095535  -1.40464754  -6.44142450
 O   5.76276506   2.02530382  -5.80174989
 C   2.68952350  -1.31649333  -5.06633015
 H   2.21847450  -0.56235726  -4.43250146
 H   1.92810496  -1.63990402  -5.78217007
 C   3.12469151  -2.49285618  -4.20703571
 H   4.02803085  -2.23198738  -3.65017058
 H   3.38562024  -3.34516319  -4.83963876
 C   2.06032856  -2.89189940  -3.20471405
 H   2.46577313  -3.60625437  -2.48521178
 H   1.75796692  -1.99886157  -2.65224762
 N   0.85395449  -3.46321019  -3.84976352
 H   0.11482977  -3.67026903  -3.17763186
 H   0.47329141  -2.80667671  -4.52875785
 H   1.07285297  -4.32455810  -4.34983653
 O   6.61821371   0.08655267  -6.53827607
