21
conf-102
 N  -4.07522678  -1.70605166   3.41781480
 H  -4.94996882  -1.87277555   2.91853067
 H  -3.36445567  -2.32888854   3.02308855
 H  -4.19999588  -1.91755093   4.40829144
 C  -3.58732220  -0.33220310   3.19716262
 H  -4.44241858   0.34882912   3.15659850
 C  -2.88492162  -0.32956700   1.84446425
 C  -2.62660750   0.13004522   4.29028120
 H  -1.79594564  -0.57970191   4.33565311
 H  -2.19621106   1.09175467   3.99797092
 O  -2.41850437  -1.37255761   1.38605626
 C  -3.22802142   0.28880484   5.68961427
 H  -3.65443972  -0.67467970   5.99699362
 C  -2.12089655   0.64513823   6.67735464
 H  -1.66738614   1.60158693   6.40575142
 H  -1.33347342  -0.11206894   6.68464507
 H  -2.51008958   0.73373392   7.69435892
 C  -4.33342735   1.33705624   5.72833839
 H  -3.93691208   2.31301684   5.43249387
 H  -5.16502799   1.09518627   5.06306313
 H  -4.73686788   1.43523668   6.73958545
 N  -2.75495887   0.86584890   1.22875778
 H  -3.30083931   1.63999161   1.56463909
 C  -2.28211590   0.96328349  -0.14740286
 H  -2.60745079   0.05383410  -0.65729298
 C  -0.74946763   1.05117859  -0.17127990
 C  -2.89704384   2.18847921  -0.83678622
 H  -2.53462292   3.09026069  -0.34615093
 H  -2.53056277   2.22311626  -1.86319831
 O  -0.14662189   2.02088310  -0.60985900
 C  -4.38943327   2.16398400  -0.78453880
 C  -5.17644061   2.98785801  -0.03714990
 H  -4.89240525   3.81579701   0.59573689
 C  -5.27239707   1.22156026  -1.42381523
 C  -6.58010281   1.53178789  -1.01286853
 C  -5.05873826   0.14514116  -2.29563310
 H  -4.05807522  -0.11017008  -2.62981508
 N  -6.49607960   2.61580835  -0.16882260
 H  -7.27015639   3.06088388   0.28319095
 C  -7.45701516  -0.25404774  -2.30476345
 H  -8.29223123  -0.84432089  -2.66243970
 C  -7.69318216   0.80284093  -1.43915931
 H  -8.69354130   1.05694076  -1.10712749
 C  -6.15536192  -0.57662475  -2.73191582
 H  -6.01265123  -1.40991350  -3.40919944
 N  -0.10037058  -0.01023724   0.37773682
 H  -0.60987972  -0.87156663   0.52393736
 C   1.32927126  -0.12046174   0.21192397
 H   1.73992589   0.88945041   0.24888211
 C   1.66520508  -0.75640596  -1.14631439
 C   1.90792302  -0.92939453   1.35238577
 H   1.60755422  -0.45713721   2.29250809
 H   3.00521038  -0.93637903   1.29372263
 O   0.85725783  -1.36652869  -1.81863872
 O   1.37133944  -2.24468114   1.24194587
 H   1.57885591  -2.72529323   2.04682555
 N   2.95659462  -0.61212498  -1.53007713
 H   3.63530493  -0.09134569  -0.99639157
 C   3.42247541  -1.13451894  -2.79440531
 H   3.02429924  -2.14348797  -2.92285742
 C   4.95033662  -1.17710696  -2.69532752
 C   2.96655540  -0.27121422  -3.97245546
 H   3.32184941  -0.69110698  -4.91507015
 H   3.35665116   0.74464572  -3.87227685
 H   1.87862125  -0.22564417  -3.99071440
 O   5.56130111  -0.43209974  -1.95051030
 N   5.56121551  -2.06153584  -3.51516867
 H   5.10375502  -2.54827464  -4.27663137
 C   6.99266869  -2.08691942  -3.66197738
 H   7.37731429  -1.06109532  -3.76271208
 C   7.24947396  -2.87388035  -4.97850779
 C   7.69121376  -2.74953812  -2.47221193
 H   7.23331612  -2.34026004  -1.56969729
 H   7.47885732  -3.82338301  -2.47993001
 O   8.42940919  -3.02534169  -5.31995734
 C   9.19184672  -2.49152438  -2.45041071
 H   9.65011588  -2.81483957  -3.38699983
 H   9.35072972  -1.40944562  -2.38465336
 C   9.86857038  -3.16476813  -1.27206534
 H   9.73582702  -4.24766496  -1.34630648
 H   9.39123836  -2.84683475  -0.34144385
 C   11.34735547  -2.85476121  -1.19394523
 H   11.82776428  -3.16928952  -2.12348468
 H   11.48119712  -1.77342972  -1.11261828
 N   12.00561548  -3.52330628  -0.04403182
 H   13.00331580  -3.31493250   0.00705235
 H   11.58515244  -3.23019271   0.83719512
 H   11.90592724  -4.53596834  -0.10562465
 O   6.22527296  -3.26563796  -5.57676947
