21
conf-950
 N  -4.75012327  -0.98705238   3.47747219
 H  -5.43281547  -0.33790889   3.07959389
 H  -4.86746776  -1.88823199   3.01023695
 H  -4.96054656  -1.10612099   4.46815719
 C  -3.36103306  -0.50109480   3.27293341
 H  -3.28307658   0.50632695   3.68711632
 C  -3.06171735  -0.43542480   1.78380728
 C  -2.35700689  -1.41452667   3.96354775
 H  -2.48358286  -1.30225394   5.04426265
 H  -2.62382328  -2.44506873   3.71116524
 O  -2.96609803  -1.45951136   1.09703522
 C  -0.88667014  -1.20916145   3.58906586
 H  -0.79138231  -1.48243096   2.53169432
 C  -0.42114962   0.23325960   3.75912286
 H  -0.45695130   0.51979834   4.81480908
 H  -1.02401568   0.94579561   3.19717108
 H   0.61499535   0.34086402   3.41692680
 C  -0.01217423  -2.15360603   4.40795854
 H  -0.07744488  -1.90369517   5.46851633
 H  -0.32270866  -3.19242766   4.28059053
 H   1.03604111  -2.07923308   4.10620670
 N  -2.94020098   0.81979957   1.26904792
 H  -2.81635194   1.57896250   1.91805657
 C  -2.30194804   0.99197376  -0.03361896
 H  -2.51522311   0.08404916  -0.59482770
 C  -0.80491142   1.13431472   0.21384054
 C  -2.85208725   2.19723948  -0.77960618
 H  -3.94120119   2.12786321  -0.77604433
 H  -2.58885488   3.10409623  -0.23089125
 O  -0.25331660   2.21378731   0.37676307
 C  -2.35487761   2.27645429  -2.19962324
 C  -1.44442953   1.48093581  -2.84985094
 H  -0.88133958   0.63410310  -2.49418186
 C  -2.76261441   3.27041354  -3.16670349
 C  -2.05406069   3.02771009  -4.35591831
 C  -3.66523949   4.34018704  -3.10341128
 H  -4.22244637   4.54928289  -2.19500170
 N  -1.24705909   1.93543653  -4.13313778
 H  -0.64329092   1.50751522  -4.80750898
 C  -3.11304716   4.87018002  -5.41128640
 H  -3.26614889   5.50685456  -6.27424602
 C  -2.21336390   3.81790071  -5.49476586
 H  -1.65614005   3.61372294  -6.40223755
 C  -3.83079620   5.12850889  -4.22899463
 H  -4.52425795   5.96092137  -4.20440217
 N  -0.15021791  -0.04776978   0.34673936
 H  -0.64152179  -0.89636343   0.11720456
 C   1.29366885  -0.10000819   0.25581766
 H   1.68193529   0.80509002   0.72051301
 C   1.73909031  -0.16254971  -1.20570573
 C   1.80042686  -1.32767536   1.00170430
 H   1.59069146  -1.21035850   2.07026016
 H   2.88397412  -1.43028963   0.85430627
 O   1.08313112  -0.74080413  -2.06994341
 O   1.12198609  -2.49931783   0.59068014
 H   1.37237184  -2.66963603  -0.32609929
 N   2.93436359   0.43943517  -1.46542613
 H   3.51809725   0.62901088  -0.66981110
 C   3.66277804   0.08281778  -2.67217566
 H   2.93565113   0.04378349  -3.48398033
 C   4.28143740  -1.31609029  -2.50794077
 C   4.73397618   1.12171138  -2.96411238
 H   5.28489668   0.86432828  -3.87274431
 H   5.44268701   1.17210350  -2.13360311
 H   4.27326469   2.10105504  -3.09563989
 O   4.43090237  -1.85463597  -1.42390041
 N   4.66468628  -1.89696518  -3.66948485
 H   4.78689022  -1.38020974  -4.53043966
 C   5.47685428  -3.08195213  -3.66666429
 H   6.26234643  -2.99631378  -2.90051388
 C   6.14357430  -3.10325227  -5.07450099
 C   4.67216378  -4.35805420  -3.42133158
 H   3.91426873  -4.14820044  -2.66637391
 H   4.13876047  -4.61574815  -4.33917047
 O   6.79860825  -4.10635859  -5.38365301
 C   5.57649933  -5.50193167  -2.96457658
 H   6.52135819  -5.46181554  -3.51291573
 H   5.82123408  -5.34040457  -1.90866214
 C   4.94898790  -6.87404245  -3.15555225
 H   3.94148214  -6.89448722  -2.72730173
 H   5.54017933  -7.62427365  -2.62250956
 C   4.87420696  -7.27083020  -4.61803048
 H   4.22436925  -6.57693712  -5.15306674
 H   5.86783411  -7.18522706  -5.06593777
 N   4.36151901  -8.65168784  -4.80256005
 H   4.31293145  -8.91622443  -5.78653906
 H   4.95973790  -9.32817610  -4.33080671
 H   3.42488933  -8.74664202  -4.41186265
 O   5.96723222  -2.07472818  -5.76129263
