21
conf-879
 N  -4.79698224  -0.24583451   3.69110005
 H  -5.63641870  -0.20777271   3.10835808
 H  -4.42160566  -1.19588322   3.64503058
 H  -5.06022318  -0.04389273   4.65408942
 C  -3.75349824   0.68799688   3.20748461
 H  -4.20197856   1.67469451   3.06550535
 C  -3.21578560   0.17386817   1.88464961
 C  -2.61128823   0.77989873   4.21085097
 H  -3.01351761   1.19042433   5.14309635
 H  -2.28635443  -0.24388863   4.41960558
 O  -2.74863397  -0.95488490   1.79299591
 C  -1.38472336   1.59172206   3.78374082
 H  -0.92433815   1.07873249   2.93257610
 C  -1.72905118   3.01264385   3.34542624
 H  -2.22626153   3.55895376   4.15239178
 H  -2.37177373   3.02800584   2.46553039
 H  -0.81631911   3.55238610   3.07823130
 C  -0.37883493   1.61683867   4.93431219
 H  -0.80639825   2.13252050   5.79668006
 H  -0.10546791   0.60476614   5.23925287
 H   0.53424144   2.13929601   4.64201562
 N  -3.29384174   1.02449452   0.83705880
 H  -3.61966645   1.96566812   0.98597958
 C  -2.66940381   0.70804274  -0.43112639
 H  -2.92325492  -0.33087749  -0.64630722
 C  -1.15084979   0.87350402  -0.32323644
 C  -3.18945906   1.63571985  -1.54897049
 H  -2.74999225   2.62592198  -1.40866836
 H  -2.82672058   1.24978453  -2.50400887
 O  -0.64604577   1.83928363   0.24330442
 C  -4.68274468   1.75179637  -1.56210745
 C  -5.57886967   0.93687422  -2.19224762
 H  -5.40397986   0.08685502  -2.83400202
 C  -5.45470529   2.73091408  -0.84087153
 C  -6.81157843   2.43468170  -1.05327687
 C  -5.09831229   3.81680595  -0.03280765
 H  -4.05629183   4.07264390   0.12714745
 N  -6.86525042   1.33807342  -1.88451831
 H  -7.70257708   0.90029899  -2.21790565
 C  -7.46272109   4.24030320   0.34460134
 H  -8.22652908   4.84173938   0.82208442
 C  -7.83811080   3.17728490  -0.46377294
 H  -8.88007345   2.93052457  -0.63299574
 C  -6.10824664   4.55956789   0.55514835
 H  -5.85622244   5.39866787   1.19049589
 N  -0.42360970  -0.10370954  -0.92508852
 H  -0.87772244  -0.72751806  -1.57575241
 C   1.00126829   0.04487067  -1.12534552
 H   1.27768136   1.04257405  -0.79288605
 C   1.30686213  -0.16643427  -2.59983137
 C   1.78197077  -0.97063109  -0.29877033
 H   2.84144477  -0.94772686  -0.59424519
 H   1.38679369  -1.97250047  -0.51110351
 O   0.65874712  -0.93010242  -3.29241415
 O   1.60953563  -0.61138020   1.06630804
 H   1.96501238  -1.31623666   1.61190164
 N   2.38865794   0.52978350  -3.07727550
 H   2.98309219   0.93487383  -2.37189278
 C   3.14561819  -0.01759451  -4.19668151
 H   2.42815927  -0.51165024  -4.85020540
 C   4.13833529  -1.05117024  -3.63964379
 C   3.88607809   1.09285362  -4.92788019
 H   4.41579333   0.69576538  -5.79703254
 H   4.61825494   1.55507611  -4.26137335
 H   3.18248624   1.85559352  -5.26196776
 O   4.66253429  -0.90513780  -2.54029024
 N   4.41207901  -2.09673711  -4.45098509
 H   4.18926545  -2.12150320  -5.43961353
 C   5.45895041  -3.02483512  -4.12308468
 H   6.36407819  -2.47476805  -3.82328206
 C   5.74405995  -3.78754053  -5.45100222
 C   5.07425586  -3.99806803  -3.00504458
 H   4.53028600  -3.43948535  -2.24110302
 H   4.37865894  -4.73557434  -3.41132806
 O   5.17150480  -3.34549275  -6.46536358
 C   6.31586690  -4.66308661  -2.40498880
 H   7.09372040  -4.72818285  -3.16732567
 H   6.70755386  -4.01534842  -1.61304467
 C   6.05982033  -6.06492706  -1.86855299
 H   5.24696787  -6.06189422  -1.13553158
 H   6.95768652  -6.41778811  -1.35293262
 C   5.72650362  -7.04428229  -2.98235945
 H   4.73233767  -6.82796244  -3.37334453
 H   6.43225004  -6.90451618  -3.80409890
 N   5.75852626  -8.45405290  -2.52188306
 H   5.53233974  -9.10706279  -3.27218775
 H   6.68216797  -8.70048276  -2.16964996
 H   5.09004259  -8.60780341  -1.76799413
 O   6.52388187  -4.75120908  -5.39147096
