21
conf-428
 N  -5.61463993   1.40063177   3.56979915
 H  -6.11281103   2.05225130   2.96007028
 H  -5.91142876   0.45404712   3.31996510
 H  -5.88053434   1.58478759   4.53469212
 C  -4.15042352   1.49037283   3.38827369
 H  -3.85362064   2.53760720   3.46148312
 C  -3.79834467   0.95277472   2.00811119
 C  -3.44161887   0.67485263   4.46915835
 H  -3.77072200   1.05446488   5.44289222
 H  -3.81293666  -0.35142630   4.38305976
 O  -4.36696673  -0.02626886   1.54464635
 C  -1.91386320   0.64814275   4.43734444
 H  -1.59660554   0.26542977   3.46212511
 C  -1.30582125   2.03164980   4.63418305
 H  -1.59658045   2.43860303   5.60660821
 H  -1.61636394   2.73962876   3.86246010
 H  -0.21441882   1.97843962   4.59757506
 C  -1.40418459  -0.31360996   5.50862845
 H  -1.71078109   0.02645614   6.50034290
 H  -1.79953011  -1.31946291   5.35328565
 H  -0.31395122  -0.37568343   5.49216309
 N  -2.80561566   1.62603245   1.36219552
 H  -2.23421382   2.26613717   1.89024068
 C  -2.12435013   1.09253598   0.20381511
 H  -2.50139231   0.08236234   0.02562398
 C  -0.62886235   1.07742932   0.50737133
 C  -2.38830446   1.97139846  -1.03256369
 H  -2.16094127   3.00718012  -0.77225405
 H  -1.71325467   1.67713196  -1.83897247
 O  -0.13324468   1.80921049   1.34680767
 C  -3.81710561   1.85262082  -1.46539973
 C  -4.88123354   2.51379893  -0.91880950
 H  -4.88996484   3.23797464  -0.11781597
 C  -4.35597704   0.96130406  -2.45967400
 C  -5.74817180   1.14230820  -2.47432215
 C  -3.76478228   0.03341174  -3.32489906
 H  -2.68937037  -0.12215834  -3.32419277
 N  -6.04551377   2.09779680  -1.52650042
 H  -6.96705131   2.40733968  -1.28090568
 C  -5.97921747  -0.48794266  -4.18295812
 H  -6.59256053  -1.06464599  -4.86473977
 C  -6.58414476   0.42477814  -3.33245636
 H  -7.65775275   0.57784871  -3.33055338
 C  -4.58484444  -0.68284167  -4.17985117
 H  -4.14956459  -1.40558358  -4.85967321
 N   0.10651959   0.20118657  -0.24604182
 H  -0.35343605  -0.14530015  -1.07183292
 C   1.51423318   0.47232476  -0.45146141
 H   1.89317502   0.98237915   0.43295594
 C   1.68839167   1.36099569  -1.68549463
 C   2.29336594  -0.82968092  -0.63813895
 H   1.92546697  -1.35730753  -1.53024034
 H   2.12602694  -1.46074883   0.23414832
 O   0.88514170   1.36833759  -2.60313935
 O   3.68367405  -0.57846428  -0.71175814
 H   3.90698434  -0.30747903  -1.61308286
 N   2.82094163   2.11756229  -1.69585718
 H   3.54382971   1.85254320  -1.04370192
 C   3.29879028   2.65854816  -2.95097951
 H   2.41746126   2.95871786  -3.51543975
 C   4.03770992   1.57284778  -3.74477148
 C   4.20829224   3.85638736  -2.70586675
 H   4.55693314   4.27582447  -3.65372393
 H   5.08158950   3.55425100  -2.12308302
 H   3.66738891   4.62761154  -2.15738059
 O   4.57909079   0.61095023  -3.19996157
 N   4.08845178   1.77828063  -5.07906710
 H   3.90197266   2.69442475  -5.47340043
 C   5.03101539   1.08222302  -5.91153161
 H   5.91106617   0.78142454  -5.32542264
 C   5.46348042   2.11355661  -7.00198056
 C   4.46638652  -0.15012522  -6.61163965
 H   3.58343563   0.12038044  -7.19837030
 H   5.23288358  -0.48929045  -7.31392156
 O   6.32023392   1.74627383  -7.80672458
 C   4.12459250  -1.26670525  -5.63721129
 H   4.97274137  -1.41178532  -4.96453949
 H   3.28675024  -0.96977176  -5.01167882
 C   3.78301767  -2.55856621  -6.36111130
 H   4.61975115  -2.85564468  -7.00138259
 H   2.92731373  -2.37840378  -7.02035524
 C   3.43333649  -3.70319978  -5.43025191
 H   2.65634461  -3.37084742  -4.73670429
 H   3.01760058  -4.53734210  -5.99807507
 N   4.60452688  -4.17900277  -4.64949539
 H   4.35558447  -4.91946836  -3.99353106
 H   5.33620986  -4.53720562  -5.26300522
 H   5.01435223  -3.41832383  -4.10927393
 O   4.89081062   3.22717367  -6.92606684
