21
conf-34
 N  -3.67038762   2.98738698   3.51847219
 H  -3.32151511   3.79069221   2.99161458
 H  -4.59177606   2.74406328   3.14746674
 H  -3.77086600   3.25673381   4.49518794
 C  -2.78589876   1.80924588   3.37147568
 H  -1.76162468   2.11605738   3.58738738
 C  -2.88867106   1.30423155   1.94088050
 C  -3.21477708   0.70810349   4.33386487
 H  -3.20932258   1.12521869   5.34761471
 H  -4.25403986   0.46612973   4.09109675
 O  -3.98439122   1.09300335   1.42444933
 C  -2.39025824  -0.57917942   4.32286567
 H  -2.41469177  -0.98778051   3.30714918
 C  -0.93605954  -0.33735743   4.71387924
 H  -0.87997983   0.09847579   5.71602981
 H  -0.42625176   0.33654540   4.02141142
 H  -0.38140029  -1.27883861   4.72450730
 C  -3.03264305  -1.60403900   5.25524842
 H  -3.03620482  -1.23308376   6.28281415
 H  -4.06388491  -1.80956784   4.96118307
 H  -2.48328067  -2.54785631   5.23634026
 N  -1.72509264   1.06456930   1.29807726
 H  -0.84214475   1.35382418   1.69241043
 C  -1.70354224   0.58100643  -0.07410229
 H  -2.43920766  -0.22082630  -0.16665015
 C  -0.29107274   0.06334787  -0.30176555
 C  -2.05202348   1.69988109  -1.07243577
 H  -3.05446567   2.05476363  -0.83797964
 H  -1.35304028   2.52311758  -0.91963044
 O   0.68151232   0.77859602  -0.04894350
 C  -1.95421434   1.22451827  -2.49350621
 C  -0.85867090   1.35708239  -3.29375345
 H   0.05608894   1.87830202  -3.09008747
 C  -2.90665646   0.44504255  -3.24390838
 C  -2.30575916   0.11651394  -4.47086088
 C  -4.20825114  -0.00117376  -2.97365026
 H  -4.70375134   0.24670551  -2.03851472
 N  -1.04412135   0.67870073  -4.47276374
 H  -0.38445794   0.61653934  -5.22591915
 C  -4.23384187  -1.08498849  -5.14935328
 H  -4.76907411  -1.68381992  -5.87677753
 C  -2.94898065  -0.65137419  -5.44011346
 H  -2.46557237  -0.89734725  -6.37937070
 C  -4.85750889  -0.76267489  -3.93171201
 H  -5.86365197  -1.11682066  -3.74170293
 N  -0.16884277  -1.18067324  -0.78882002
 H  -0.98642304  -1.72910941  -1.01013948
 C   1.11508044  -1.84865487  -0.90583770
 H   1.73776663  -1.48083706  -0.08406244
 C   1.82697944  -1.49670910  -2.22208270
 C   0.88693848  -3.34108595  -0.75828520
 H   0.69909611  -3.55305022   0.30016454
 H   1.77384601  -3.88763417  -1.08968538
 O   2.08432889  -2.33442346  -3.08697188
 O  -0.25692102  -3.68149742  -1.53930769
 H  -0.22545566  -4.61999306  -1.74654846
 N   2.16806052  -0.20026707  -2.36025266
 H   1.96370469   0.44377269  -1.60299739
 C   2.98814814   0.23330521  -3.48124184
 H   2.70113984  -0.41381455  -4.31908761
 C   4.46980827  -0.01371744  -3.15930250
 C   2.74919372   1.69377557  -3.81026466
 H   3.40165016   1.99889054  -4.62976313
 H   2.97990398   2.31515080  -2.94337422
 H   1.71303975   1.86106917  -4.11112618
 O   5.28211033   0.89430991  -3.03465021
 N   4.80539922  -1.31622813  -2.96459670
 H   4.23523167  -2.08003375  -3.32458617
 C   6.17170405  -1.71669993  -2.84660600
 H   6.83198758  -0.96398293  -3.30033378
 C   6.29712075  -3.07271407  -3.60800454
 C   6.62755664  -1.96825879  -1.40856532
 H   5.95029847  -2.68173534  -0.92799541
 H   7.61295691  -2.44095721  -1.46889468
 O   7.43163971  -3.53675351  -3.73773741
 C   6.71394168  -0.69604715  -0.57967323
 H   7.30830802   0.04451076  -1.12500586
 H   5.72499969  -0.26241961  -0.45717360
 C   7.33121575  -0.94404747   0.78419382
 H   8.32623927  -1.38127970   0.66379643
 H   6.72468763  -1.67145094   1.33024326
 C   7.44188323   0.31876835   1.60902692
 H   8.05960359   1.04355739   1.07355022
 H   6.44883291   0.76087067   1.71849352
 N   8.02301687   0.06921542   2.95193607
 H   8.09379966   0.92146169   3.50881499
 H   7.45424477  -0.59436535   3.47673934
 H   8.95934628  -0.32694925   2.87651096
 O   5.20941620  -3.54085716  -4.01366152
