21
conf-459
 N  -5.31575813   0.70124271   3.71682607
 H  -6.08825887   0.95609481   3.09848546
 H  -5.14362292  -0.30091448   3.60647316
 H  -5.59344943   0.88247710   4.67914323
 C  -4.07040886   1.42100622   3.37143081
 H  -4.29800185   2.48299698   3.27370683
 C  -3.54296197   0.88546507   2.04970658
 C  -3.02712062   1.21628473   4.46874949
 H  -3.44364476   1.59834895   5.40674509
 H  -2.90539177   0.13422643   4.58638097
 O  -3.54279017  -0.30924800   1.79214346
 C  -1.64487254   1.83332269   4.24501417
 H  -1.22643513   1.41888501   3.31821090
 C  -1.67928016   3.35130028   4.10075435
 H  -1.96557427   3.81832085   5.04748186
 H  -2.38047482   3.69285274   3.33562661
 H  -0.69070560   3.71820614   3.81010460
 C  -0.72704687   1.43361582   5.40304853
 H  -1.09582985   1.85761670   6.33840297
 H  -0.68318526   0.34978599   5.51603184
 H   0.28813865   1.79577687   5.23883297
 N  -3.06687383   1.82927694   1.18745038
 H  -2.86449518   2.73890699   1.57398944
 C  -2.24362383   1.43941118   0.04566568
 H  -2.65889225   0.50016351  -0.32450304
 C  -0.79494920   1.25100385   0.51463955
 C  -2.30518830   2.52440184  -1.03762464
 H  -3.35386179   2.78453103  -1.17484686
 H  -1.78373540   3.40525474  -0.66031404
 O  -0.15044724   2.23079296   0.92766948
 C  -1.72899429   2.09793701  -2.36128725
 C  -2.40148942   1.47339201  -3.37922681
 H  -3.43243923   1.16509580  -3.43937003
 C  -0.37247782   2.27868941  -2.82516937
 C  -0.29679617   1.74196811  -4.12015368
 C   0.76978867   2.85041836  -2.25827081
 H   0.75625379   3.19104871  -1.22569930
 N  -1.53999595   1.24822187  -4.43487474
 H  -1.78769910   0.80761259  -5.30045713
 C   1.99675925   2.32554239  -4.28741992
 H   2.94291711   2.32462828  -4.81467083
 C   0.88384826   1.74990678  -4.86954757
 H   0.92025345   1.31474975  -5.86179410
 C   1.93900490   2.87972624  -3.00063959
 H   2.84548007   3.27931416  -2.55198711
 N  -0.36929454  -0.03881083   0.46903320
 H  -1.03906196  -0.71199056   0.13479401
 C   0.99591108  -0.50585463   0.61525601
 H   0.99750807  -1.52890770   0.24071530
 C   1.47595349  -0.56452918   2.06768253
 C   1.95388275   0.28736354  -0.26607159
 H   2.99490995   0.03351774  -0.03738376
 H   1.80565710   1.35472479  -0.06734067
 O   0.98090816   0.04521277   2.99942615
 O   1.61751303  -0.04430072  -1.60699852
 H   1.96896099   0.64084510  -2.17693626
 N   2.55366808  -1.38971285   2.26165546
 H   3.08348256  -1.62950967   1.44399021
 C   3.35357599  -1.16293077   3.45453271
 H   2.66361085  -1.12303126   4.29847012
 C   4.04646403   0.20275050   3.33808353
 C   4.35948148  -2.28737698   3.65640268
 H   4.95513827  -2.11392216   4.55711248
 H   5.03947288  -2.34931368   2.80297668
 H   3.83518052  -3.23803962   3.75913653
 O   4.18986793   0.78623368   2.27622622
 N   4.50946655   0.69757583   4.51130257
 H   4.61469472   0.13244013   5.34404365
 C   5.40906570   1.81882604   4.53630484
 H   6.13345169   1.73712444   3.71111537
 C   6.16493542   1.68945872   5.89098868
 C   4.67870343   3.15566886   4.41338069
 H   3.94505781   3.04360559   3.61555971
 H   4.12133139   3.35008677   5.33438324
 O   6.97434859   2.57926740   6.17598708
 C   5.61567171   4.31202953   4.08780022
 H   6.40491198   4.38247870   4.83934683
 H   6.10858063   4.07910539   3.13811724
 C   4.86990458   5.63059763   3.98403339
 H   4.35098670   5.81820736   4.92988868
 H   4.10002480   5.56161981   3.20974579
 C   5.76753840   6.81886012   3.69393759
 H   5.20539119   7.74869847   3.79619455
 H   6.56838011   6.84538496   4.43797079
 N   6.37415576   6.75944728   2.33902072
 H   6.98654143   7.55494205   2.15690793
 H   6.93372654   5.91541835   2.22565305
 H   5.65706886   6.74442434   1.61407076
 O   5.89025976   0.66599629   6.55511445
