21
conf-772
 N  -3.55704590   3.00265319   2.71695254
 H  -3.80796271   3.57870403   1.91367026
 H  -4.30443474   2.32366414   2.85973267
 H  -3.49022076   3.60012795   3.54022507
 C  -2.28929974   2.29420429   2.48251031
 H  -1.52199126   3.02664528   2.21628407
 C  -2.47332888   1.34120341   1.30313948
 C  -1.83157921   1.52124130   3.71275650
 H  -2.55309319   0.72043175   3.89949222
 H  -0.87944673   1.03645349   3.48248848
 O  -3.58899579   0.97118372   0.94537594
 C  -1.65363190   2.34167672   4.99370330
 H  -2.63999199   2.69077481   5.31946142
 C  -1.09911533   1.44073357   6.09258644
 H  -0.10732215   1.07596344   5.81564754
 H  -1.74425446   0.57485234   6.25883462
 H  -1.00877463   1.97810433   7.03956493
 C  -0.76122846   3.55733419   4.78564048
 H   0.22030393   3.25286831   4.40701073
 H  -1.19199135   4.26722747   4.07727237
 H  -0.60270877   4.08732234   5.72797823
 N  -1.34368671   0.90620441   0.70588264
 H  -0.42104324   1.17765517   1.00746814
 C  -1.38809269  -0.04698306  -0.37957890
 H  -2.06370017  -0.86838058  -0.11374203
 C   0.04331503  -0.54645027  -0.54946112
 C  -1.90586109   0.59834317  -1.68688763
 H  -2.71539781   1.27644480  -1.41891708
 H  -1.10606176   1.20014841  -2.12960028
 O   0.98825212   0.04840159  -0.04771298
 C  -2.41338581  -0.41961285  -2.66184282
 C  -1.78377283  -0.93970795  -3.75745334
 H  -0.80168182  -0.75166691  -4.14649353
 C  -3.67442699  -1.10389130  -2.55491275
 C  -3.75696100  -2.00761818  -3.62587578
 C  -4.72113810  -1.03330472  -1.62688041
 H  -4.66292721  -0.36192929  -0.77583810
 N  -2.59292496  -1.88745024  -4.34788581
 H  -2.36319878  -2.40779139  -5.17135441
 C  -5.89375049  -2.74107316  -2.89751710
 H  -6.77032370  -3.36719816  -3.01461929
 C  -4.86225087  -2.83895649  -3.81881719
 H  -4.90818641  -3.52837644  -4.65457908
 C  -5.82701381  -1.84896176  -1.81281697
 H  -6.65186158  -1.80527494  -1.11209345
 N   0.20125172  -1.65886132  -1.31044712
 H  -0.59155650  -1.94730400  -1.86934595
 C   1.52776372  -2.00183994  -1.81930447
 H   2.21915913  -1.85351398  -0.98806136
 C   1.88762273  -1.05862843  -2.97408156
 C   1.53491758  -3.45488933  -2.25641070
 H   2.48508946  -3.70161600  -2.73000646
 H   0.73913642  -3.59661437  -3.00255926
 O   1.60044622  -1.31060454  -4.14786039
 O   1.38608090  -4.32469168  -1.15121008
 H   0.60289822  -4.03589888  -0.67653427
 N   2.48352514   0.09575569  -2.61006210
 H   2.54729373   0.36998422  -1.63594211
 C   2.72346320   1.12586819  -3.59427378
 H   3.09079395   0.63790161  -4.49879745
 C   3.79490724   2.04881057  -3.01546113
 C   1.45268143   1.90656109  -3.93173109
 H   1.65753362   2.68880666  -4.66255683
 H   1.03887897   2.36009243  -3.02654951
 H   0.71627167   1.21730208  -4.34599730
 O   3.88359717   2.24901098  -1.81775754
 N   4.59163253   2.65631165  -3.92328587
 H   4.40627047   2.68252577  -4.91922255
 C   5.51984888   3.68632576  -3.53623616
 H   5.03177741   4.38425658  -2.83955266
 C   5.87308575   4.43060138  -4.85617029
 C   6.76752775   3.11682815  -2.85435004
 H   6.40967643   2.34467282  -2.17041591
 H   7.39604948   2.61807184  -3.59769938
 O   6.67395766   5.37034590  -4.77426226
 C   7.55323635   4.17174636  -2.08481656
 H   7.82307914   4.99300175  -2.75355988
 H   6.89345496   4.59623195  -1.31886996
 C   8.79735446   3.61630286  -1.40885198
 H   9.37051220   4.43756978  -0.96930258
 H   9.44330335   3.14199242  -2.15656933
 C   8.49308545   2.61050734  -0.31802440
 H   7.81184329   3.06047763   0.40872859
 H   7.98280418   1.74513326  -0.74712443
 N   9.72334963   2.14328955   0.36914826
 H   9.52328235   1.46089318   1.10052167
 H   10.36392746   1.70637233  -0.29186882
 H   10.21636561   2.92294624   0.80167682
 O   5.29094210   4.01049056  -5.87812342
