21
conf-651
 N  -6.05320769   0.16887449   3.28529487
 H  -6.46818835   0.32171477   4.20335991
 H  -6.71779046   0.48245762   2.57988453
 H  -5.95309910  -0.83494782   3.14367811
 C  -4.75726615   0.84958461   3.12733520
 H  -4.04968741   0.50278383   3.88166574
 H  -4.86894549   1.92598364   3.24831953
 C  -4.17265265   0.57218700   1.74625454
 O  -4.71925856  -0.17904554   0.94541741
 N  -3.02673996   1.24424491   1.47292479
 H  -2.48078824   1.63858544   2.22718215
 C  -2.23246743   0.94772588   0.30005829
 H  -2.59617098   0.01606168  -0.13946858
 C  -0.79152273   0.77430229   0.79121208
 C  -2.30146126   2.05714864  -0.75065051
 H  -1.96070669   2.98822178  -0.29140514
 H  -1.59558163   1.82446481  -1.55272456
 O  -0.40537363   1.26928054   1.83644430
 C  -3.68081715   2.28685999  -1.37431573
 H  -4.39582433   2.46668847  -0.57127146
 C  -3.63798991   3.53238347  -2.25531765
 H  -2.91758411   3.40023354  -3.06690068
 H  -4.61609312   3.73424562  -2.69801183
 H  -3.34316544   4.41000169  -1.67590683
 C  -4.14884768   1.07710420  -2.17901114
 H  -3.44588078   0.87093021  -2.99179376
 H  -4.23236467   0.18396795  -1.55912870
 H  -5.12880837   1.27178331  -2.62220213
 N   0.02593260   0.07416992  -0.02989652
 H  -0.25329739  -0.20358228  -0.95820169
 C   1.44952623  -0.02876541   0.23283733
 H   1.79930196   0.93628235   0.61719493
 C   2.09910150  -0.32226030  -1.11814610
 C   1.77559196  -1.08866822   1.31820226
 H   1.07078036  -0.86292983   2.12047703
 O   1.46151917  -0.76375311  -2.05908929
 C   1.53857643  -2.51491573   0.82743419
 H   2.26897805  -2.77641827   0.05770340
 H   1.64800442  -3.21946213   1.65513702
 H   0.53823826  -2.62987223   0.40301896
 C   3.18705275  -0.94022839   1.87923040
 H   3.94593475  -1.21817383   1.14697245
 H   3.30815483  -1.58709700   2.75080793
 H   3.37961132   0.08847022   2.19962933
 N   3.43144698  -0.09491405  -1.17313137
 H   4.00531610   0.05479588  -0.35756676
 C   4.24183586  -0.57734395  -2.25622772
 H   3.97320037  -1.61435331  -2.50175304
 C   5.69468255  -0.55662302  -1.70132236
 C   4.14695277   0.24773016  -3.53490124
 H   4.74340626  -0.25915238  -4.29852526
 H   3.10461117   0.22097809  -3.85541303
 O   6.60672009  -0.83377529  -2.47843714
 C   4.61408093   1.68932275  -3.37819770
 H   5.67699111   1.70897236  -3.11345957
 H   4.07879438   2.16299555  -2.55410937
 C   4.38765035   2.48667337  -4.64930561
 H   4.93557242   2.02505695  -5.47495540
 H   3.32673129   2.45966515  -4.91245196
 C   4.82427565   3.92852112  -4.51666914
 H   4.27461841   4.39388778  -3.69499458
 H   5.88391624   3.95820789  -4.25192992
 N   4.60295313   4.70425217  -5.76247676
 H   4.89827166   5.67687863  -5.67192399
 H   5.11987036   4.29735525  -6.54124058
 H   3.61676876   4.70542492  -6.02069941
 O   5.76854377  -0.27833735  -0.48467212
