21
conf-617
 N  -5.37918928   0.39977789   4.65748449
 H  -5.58943961   0.77098094   5.58290452
 H  -6.24014594   0.39657332   4.11308753
 H  -5.11298169  -0.57825195   4.75910120
 C  -4.32300632   1.15890561   3.96757059
 H  -3.40328237   1.15268918   4.55413058
 H  -4.62069590   2.19721322   3.82969040
 C  -4.03334574   0.54909061   2.59994116
 O  -4.58649742  -0.47444493   2.21178972
 N  -3.14534940   1.24599015   1.84774180
 H  -2.52670816   1.91317793   2.28888183
 C  -2.60577765   0.70780683   0.61828635
 H  -2.85860098  -0.35370632   0.56303797
 C  -1.08541345   0.88455104   0.70096184
 C  -3.14827393   1.41510385  -0.62453509
 H  -2.91352636   2.47937998  -0.54488755
 H  -2.61307085   1.03947226  -1.50064170
 O  -0.57046684   1.69655690   1.45005644
 C  -4.65056162   1.25472756  -0.87125394
 H  -5.18343456   1.57882797   0.02283375
 C  -5.07377063   2.15895919  -2.02575032
 H  -4.54741950   1.87831298  -2.94187356
 H  -6.14728902   2.08101583  -2.21258498
 H  -4.84529547   3.20419651  -1.80637921
 C  -5.02699164  -0.19592330  -1.16153324
 H  -4.50360903  -0.54907017  -2.05515126
 H  -4.77604680  -0.85529446  -0.33016329
 H  -6.10119306  -0.28007526  -1.34491858
 N  -0.36440614   0.11094691  -0.14302855
 H  -0.80525323  -0.48043614  -0.82981402
 C   1.07278960   0.27122586  -0.27173515
 H   1.30059634   1.34110178  -0.20797802
 C   1.43670735  -0.26907760  -1.65639426
 C   1.84418839  -0.42955512   0.87893507
 H   1.29998662  -0.13473972   1.77776764
 O   0.72476050  -1.07552091  -2.23490447
 C   1.81823857  -1.95048290   0.74643188
 H   2.39742125  -2.26073844  -0.12719003
 H   2.25812995  -2.41271507   1.63293240
 H   0.79746467  -2.32271177   0.63002421
 C   3.27830718   0.07324509   1.01287353
 H   3.89035444  -0.22528706   0.16273922
 H   3.73228829  -0.33916218   1.91644748
 H   3.30725885   1.16438294   1.09510380
 N   2.61105123   0.19494890  -2.15699160
 H   3.29820824   0.63075025  -1.56016281
 C   3.27529307  -0.40505276  -3.28209519
 H   2.99763027  -1.46519476  -3.37920276
 C   4.79658660  -0.28543022  -2.96957545
 C   3.03187555   0.30081650  -4.61946243
 H   3.21402955   1.37283810  -4.49832338
 H   3.78394721  -0.07765239  -5.31622708
 O   5.57669216  -0.84097255  -3.74213094
 C   1.63222857   0.07129379  -5.16758165
 H   0.89387937   0.37828725  -4.42723617
 H   1.47790721  -1.00342633  -5.31424001
 C   1.36554579   0.79884907  -6.48070327
 H   0.34952800   0.56945960  -6.81410054
 H   1.39982472   1.88055573  -6.31168314
 C   2.34100644   0.45700713  -7.59630509
 H   2.02686623   0.93712027  -8.52410666
 H   3.33053213   0.85519087  -7.35123191
 N   2.44937271  -1.00866754  -7.80588885
 H   2.91549053  -1.24056396  -8.68311339
 H   2.98960595  -1.43185410  -7.05018800
 H   1.52886867  -1.44526411  -7.79717934
 O   5.06575997   0.38081689  -1.94388298
