21
conf-862
 N  -2.00309436   3.43906789   2.47081564
 H  -2.03460329   4.40693985   2.78590146
 H  -1.31411953   2.93518194   3.03258761
 H  -1.65578293   3.43117701   1.50849251
 C  -3.32570268   2.76972451   2.59102135
 H  -4.08202562   3.35618022   2.06811986
 H  -3.61164357   2.67258035   3.63707240
 C  -3.21937340   1.37854092   1.99496513
 O  -2.91315326   0.39858798   2.65534759
 N  -3.39224932   1.33248893   0.62950228
 H  -3.50503015   2.23333940   0.19367317
 C  -2.48816181   0.45625105  -0.12618352
 H  -2.55346596  -0.52742248   0.33499554
 C  -1.06424616   0.99714906  -0.01490467
 C  -2.92962152   0.42274714  -1.58678026
 H  -3.94093331   0.01354097  -1.62200213
 H  -2.98440148   1.46004903  -1.92805981
 O  -0.82040593   2.17827653  -0.29925650
 C  -2.02626144  -0.34892920  -2.54880633
 H  -1.03123613   0.11517606  -2.49913763
 C  -1.90237079  -1.82471782  -2.18084641
 H  -2.88570485  -2.30283665  -2.19792430
 H  -1.26151440  -2.34044359  -2.90050438
 H  -1.46362642  -1.97484634  -1.19357602
 C  -2.55328099  -0.19983856  -3.97433824
 H  -3.55332307  -0.63225121  -4.05359585
 H  -2.60872731   0.85073601  -4.26594867
 H  -1.90318192  -0.71317075  -4.68557923
 N  -0.13701000   0.10904310   0.44682742
 H  -0.41864679  -0.85889837   0.47186358
 C   1.29079382   0.33952429   0.21251788
 H   1.43879339   1.41972281   0.24372597
 C   1.61082405  -0.18507969  -1.18183384
 C   2.16946698  -0.33732477   1.27307794
 H   1.95595973  -1.40706514   1.22110212
 O   1.36973600  -1.34068641  -1.50637192
 C   3.65960211  -0.11856038   0.99271873
 H   3.88840600   0.95151110   1.03904624
 H   4.25881568  -0.62436771   1.75349882
 H   3.96798677  -0.49107354   0.01286495
 C   1.84697931   0.17093239   2.67567467
 H   2.08249628   1.23563869   2.74520591
 H   2.45327618  -0.35904708   3.41328122
 H   0.79612809   0.03099526   2.93030108
 N   2.11151836   0.71936074  -2.06523364
 H   2.62121658   1.49648645  -1.67997441
 C   2.64277931   0.17073368  -3.29735951
 H   1.83539364  -0.37632423  -3.78935579
 C   3.81245703  -0.80893774  -2.97998209
 C   3.21778269   1.25738303  -4.19336977
 H   2.39859152   1.83439746  -4.62837058
 H   3.80211809   1.93866151  -3.56571974
 O   3.77799685  -1.90506116  -3.56737786
 C   4.12933721   0.66187839  -5.27010727
 H   4.98408890   0.19977558  -4.77121032
 H   4.53465119   1.46614721  -5.89377590
 C   3.41433229  -0.34565883  -6.16457104
 H   2.76517148  -0.99297427  -5.57043568
 H   2.75840245   0.18882937  -6.85916923
 C   4.36024139  -1.23572200  -6.96145448
 H   3.77973952  -1.88749064  -7.61875359
 H   5.00061424  -0.63064968  -7.60869775
 N   5.20965268  -2.06115013  -6.06384134
 H   5.40778243  -2.97802369  -6.46530299
 H   6.09600838  -1.59530183  -5.87411170
 H   4.74248473  -2.19297520  -5.16093559
 O   4.68821495  -0.36534756  -2.22010855
