21
conf-231
 N  -3.59689241  -1.05032182   4.14781522
 H  -3.55225126  -0.99069433   5.16246370
 H  -4.52129339  -1.38221929   3.87501259
 H  -2.92084962  -1.74075403   3.81424671
 C  -3.27691016   0.23244412   3.49286122
 H  -2.52116723   0.77718290   4.06176189
 H  -4.15570320   0.86799189   3.41886370
 C  -2.72251078  -0.06132431   2.10582474
 O  -2.18921792  -1.14435275   1.86610652
 N  -2.81267421   0.92627761   1.19694115
 H  -3.29876975   1.77120474   1.44009058
 C  -2.46155980   0.73881681  -0.20527661
 H  -2.69675324  -0.30016104  -0.45303504
 C  -0.95664121   0.91319299  -0.42530589
 C  -3.24074680   1.69121460  -1.09768674
 H  -3.00602395   2.71038370  -0.78822239
 H  -2.86836880   1.58343053  -2.11731382
 O  -0.50655105   1.72387708  -1.22645824
 C  -4.75239148   1.48025113  -1.10211796
 H  -5.10518306   1.50782439  -0.06634750
 C  -5.42562317   2.61680338  -1.86687081
 H  -5.08520796   2.63019437  -2.90576816
 H  -6.51198842   2.49914057  -1.87139273
 H  -5.19697516   3.58867822  -1.42392135
 C  -5.13022731   0.13586277  -1.71583036
 H  -4.82551012   0.10404820  -2.76600166
 H  -4.65664142  -0.70549678  -1.20437502
 H  -6.21160678  -0.01615026  -1.67563751
 N  -0.14798667   0.12809555   0.31595443
 H  -0.56794853  -0.62187572   0.85233107
 C   1.28710405   0.11911226   0.09859787
 H   1.64345521   1.15312596   0.14656535
 C   1.60472133  -0.41711769  -1.29982096
 C   1.98783329  -0.71187572   1.19509568
 H   1.50027787  -1.69027603   1.17414777
 O   1.03322406  -1.38071757  -1.78030061
 C   3.47863443  -0.92221669   0.93083815
 H   3.99646148   0.03944070   0.85649547
 H   3.92425226  -1.47941900   1.75749851
 H   3.66020414  -1.48585963   0.01150231
 C   1.79215571  -0.06138172   2.56235925
 H   2.33510703   0.88659327   2.59723596
 H   2.18806788  -0.70593785   3.34999125
 H   0.73972762   0.13625339   2.77396965
 N   2.60824363   0.25972911  -1.94712748
 H   3.31272925   0.73115123  -1.39444521
 C   3.24399824  -0.32926108  -3.10223764
 H   2.95775516  -1.38539047  -3.18618949
 C   4.77909411  -0.20859241  -2.84565578
 C   2.91525177   0.40205745  -4.40672302
 H   3.24095185   1.44264582  -4.31271530
 H   3.51664275  -0.03327877  -5.20731876
 O   5.51739547  -0.77733045  -3.65072245
 C   1.42213458   0.33940985  -4.74406750
 H   0.85438747   0.19382386  -3.82186532
 H   1.22798058  -0.55649096  -5.34536470
 C   0.88748817   1.56339698  -5.49177485
 H   1.30030305   1.59534536  -6.50662680
 H  -0.19607714   1.45963643  -5.60488264
 C   1.19488690   2.90381775  -4.82246085
 H   2.24851432   3.15385725  -4.98657246
 H   0.61135464   3.69189935  -5.30355007
 N   0.92631835   2.89917537  -3.37289045
 H   1.02453812   3.82412632  -2.95568300
 H  -0.01128339   2.55522629  -3.15070628
 H   1.57537216   2.27936614  -2.88225403
 O   5.09067921   0.47334767  -1.84145818
