21
conf-84
 N  -5.72577107   0.71996398   3.98561007
 H  -6.06122978   1.14136310   4.85066456
 H  -6.48593002   0.73788967   3.30776385
 H  -5.53715271  -0.26524034   4.16327434
 C  -4.52936302   1.39282606   3.45285492
 H  -3.71875831   1.36449602   4.18211045
 H  -4.74009498   2.43839810   3.23308413
 C  -4.05762524   0.71119491   2.17271355
 O  -4.60703465  -0.29068570   1.72663699
 N  -3.01138393   1.32043005   1.56142140
 H  -2.44202065   1.97750225   2.07554523
 C  -2.31347507   0.70632000   0.45273199
 H  -2.63923549  -0.33378392   0.37355392
 C  -0.81760765   0.76963153   0.78682625
 C  -2.59109661   1.41624153  -0.87457738
 H  -2.29295708   2.46283752  -0.77566506
 H  -1.95284719   0.97703862  -1.64676402
 O  -0.37322328   1.58644374   1.57739674
 C  -4.04308615   1.36015865  -1.35866594
 H  -4.68361946   1.74995899  -0.56736295
 C  -4.20534899   2.25862944  -2.58166132
 H  -3.56436448   1.91214995  -3.39664870
 H  -5.23850173   2.25595294  -2.93664269
 H  -3.93267349   3.28977781  -2.34674111
 C  -4.48314754  -0.06579206  -1.67957548
 H  -3.85739180  -0.48357704  -2.47402435
 H  -4.41739352  -0.71805937  -0.80830707
 H  -5.51916620  -0.07351442  -2.02775603
 N  -0.03720564  -0.12388285   0.12869583
 H  -0.40780369  -0.67451223  -0.63129563
 C   1.41318002  -0.03000635   0.13323307
 H   1.69748181   0.98028172   0.44667749
 C   1.84122567  -0.28941452  -1.31488959
 C   2.06978769  -1.02191028   1.12068420
 H   1.81298601  -2.02759148   0.77706947
 O   1.18983016  -1.01205104  -2.04929346
 C   3.59171872  -0.87738034   1.16180862
 H   3.84832688   0.12845994   1.51612277
 H   4.01630273  -1.59692818   1.86607201
 H   4.06714255  -1.02567403   0.19376348
 C   1.51764205  -0.81909137   2.53003372
 H   1.73303733   0.19726999   2.86718753
 H   1.99016727  -1.52056015   3.22009839
 H   0.43986812  -0.96971522   2.57674150
 N   2.99053222   0.31153569  -1.71286595
 H   3.67548069   0.66992775  -1.06053918
 C   3.63307603  -0.08015902  -2.93796590
 H   3.57844028  -1.16997310  -3.06055832
 C   5.12338389   0.32372889  -2.76459438
 C   3.04760039   0.56752229  -4.18677482
 H   3.54436380   0.12150930  -5.05272359
 H   1.99487214   0.28629210  -4.22636875
 O   5.86597333   0.18148347  -3.73600724
 C   3.19718139   2.08451362  -4.22638642
 H   4.26020664   2.33754892  -4.22531002
 H   2.76728083   2.52189321  -3.32248403
 C   2.50827669   2.67370934  -5.44594347
 H   2.97182665   2.28206272  -6.35639173
 H   1.46401008   2.34543502  -5.45509682
 C   2.52554466   4.18960715  -5.48550596
 H   1.88502768   4.55234592  -6.29124533
 H   2.10945277   4.57172170  -4.54920317
 N   3.89379858   4.74122416  -5.66176462
 H   3.89842780   5.76142440  -5.67426969
 H   4.50690214   4.44556376  -4.90318009
 H   4.31356482   4.41553600  -6.53225371
 O   5.41303270   0.72815666  -1.61633345
