21
conf-669
 N  -5.23831008   1.74636936   4.19085315
 H  -5.46011832   2.41800978   4.92441499
 H  -6.09125014   1.55292216   3.66861607
 H  -4.97898269   0.86572823   4.63238973
 C  -4.16789707   2.21603575   3.29559992
 H  -3.25781013   2.41751130   3.86229556
 H  -4.45891514   3.13923164   2.79699184
 C  -3.85985378   1.16466820   2.23420819
 O  -4.40780724   0.06724367   2.22483020
 N  -2.96164513   1.55545766   1.29608985
 H  -2.34578290   2.33601630   1.48298081
 C  -2.40846675   0.62025336   0.34129138
 H  -2.65818491  -0.39088448   0.66689930
 C  -0.88884911   0.82551505   0.37085614
 C  -2.94365314   0.83848689  -1.07376267
 H  -2.73515494   1.87487652  -1.36045146
 H  -2.37903397   0.20150460  -1.76507837
 O  -0.39258561   1.86297440   0.77718719
 C  -4.43668036   0.56915813  -1.27110927
 H  -4.99005103   1.18074618  -0.55910985
 C  -4.84556461   0.99518297  -2.67839900
 H  -4.31631849   0.39663748  -3.42525066
 H  -5.91838739   0.86393992  -2.83560243
 H  -4.60466085   2.04611235  -2.85271198
 C  -4.79128705  -0.89613476  -1.03133756
 H  -4.24159259  -1.53560371  -1.72853133
 H  -4.55689518  -1.20956914  -0.01371575
 H  -5.85935048  -1.05989455  -1.19631700
 N  -0.15424396  -0.20765999  -0.12121488
 H  -0.62610800  -1.01474291  -0.49178324
 C   1.28168456  -0.09611281  -0.26258364
 H   1.50749514   0.94617695  -0.03929610
 C   1.71887906  -0.38468819  -1.71141339
 C   2.07929315  -0.95863279   0.73793987
 H   3.12305849  -0.63783805   0.61848829
 O   1.06139942  -1.10041158  -2.49297168
 C   1.65049416  -0.66204131   2.17507029
 H   0.67477677  -1.10468115   2.38908250
 H   2.36969861  -1.08804732   2.87846299
 H   1.58082416   0.41321828   2.35322038
 C   1.98745733  -2.44085644   0.38660468
 H   0.94327407  -2.74214065   0.27347857
 H   2.45032800  -3.06007560   1.15785254
 H   2.48626505  -2.62974555  -0.56785302
 N   2.91309712   0.24544816  -2.01361005
 H   3.58476893   0.34965398  -1.26112092
 C   3.64605321  -0.06741965  -3.21039859
 H   3.14737245  -0.88661141  -3.74330716
 C   5.04844229  -0.54756253  -2.72922566
 C   3.84013010   1.13104239  -4.14909700
 H   4.57529105   1.82029465  -3.71784870
 H   4.28206996   0.74708337  -5.07269370
 O   5.26839300  -0.33672313  -1.51108525
 C   2.54644653   1.89793862  -4.42556725
 H   2.76595024   2.73775472  -5.09365932
 H   2.21159984   2.34792792  -3.48821117
 C   1.43707918   1.04326753  -5.02517146
 H   1.64394997   0.86391728  -6.08309708
 H   1.42029723   0.06213909  -4.55030436
 C   0.04494419   1.64065578  -4.87041780
 H   0.02548847   2.66656736  -5.25000463
 H  -0.66732570   1.06347351  -5.46491536
 N  -0.39304721   1.63014642  -3.45292836
 H  -1.36536999   1.90776207  -3.32829646
 H  -0.30684679   0.68541502  -3.07560137
 H   0.18894414   2.25337903  -2.89259860
 O   5.77693798  -1.06233360  -3.57525711
