21
conf-962
 N  -5.73717039  -0.90181813   3.77470761
 H  -6.03904026  -0.97713150   4.74508548
 H  -6.52781910  -0.57785910   3.22015514
 H  -5.52516040  -1.83780555   3.43308321
 C  -4.57714168  -0.01055503   3.60827357
 H  -3.73398063  -0.36659738   4.20172845
 H  -4.81419937   0.99846136   3.94201972
 C  -4.15322104   0.04728125   2.14440270
 O  -4.70355061  -0.62523519   1.27877870
 N  -3.14878247   0.92008024   1.88155011
 H  -2.55886299   1.25071462   2.63334571
 C  -2.48889154   0.95219579   0.59436187
 H  -2.78639960   0.06552483   0.02958156
 C  -0.98390333   0.91607403   0.88156492
 C  -2.83905246   2.20156748  -0.21567378
 H  -2.56580446   3.08089197   0.37263942
 H  -2.21896397   2.22007023  -1.11614874
 O  -0.52535921   1.26341846   1.95645397
 C  -4.30580466   2.32172874  -0.63772136
 H  -4.92819217   2.24895191   0.25425539
 C  -4.54236011   3.69224469  -1.26642024
 H  -3.92326049   3.81427264  -2.15908912
 H  -5.58793463   3.81520914  -1.55809284
 H  -4.29237635   4.49133262  -0.56510941
 C  -4.71044682   1.21130163  -1.60397976
 H  -4.09416871   1.25516655  -2.50705581
 H  -4.59915721   0.22318008  -1.15647486
 H  -5.75518736   1.32941185  -1.90270683
 N  -0.20403021   0.51697520  -0.14933957
 H  -0.57870996   0.34950431  -1.06969228
 C   1.24271261   0.58414780  -0.06804562
 H   1.51571323   1.50090307   0.46578197
 C   1.72530644   0.64945054  -1.51653975
 C   1.84503274  -0.60491791   0.72658346
 H   1.22861742  -0.65995619   1.62535761
 O   1.02392231   0.25590446  -2.43788894
 C   1.74094133  -1.92017700  -0.04159076
 H   2.37212024  -1.88454817  -0.93322716
 H   2.07729930  -2.74926537   0.58513399
 H   0.71336767  -2.11806720  -0.35615159
 C   3.28593816  -0.34861191   1.15722780
 H   3.96292691  -0.33644907   0.30407184
 H   3.61468656  -1.13751170   1.83713994
 H   3.37736476   0.60513181   1.68651951
 N   2.97750326   1.13812562  -1.68930530
 H   3.63565940   1.20061862  -0.92652363
 C   3.69757527   0.99645757  -2.92500178
 H   3.35679525   0.10141058  -3.46263800
 C   5.18724043   0.81332027  -2.51192802
 C   3.60725465   2.20625508  -3.85623969
 H   3.94509713   3.09845351  -3.31724722
 H   4.31776466   2.03724914  -4.67223196
 O   5.99118619   0.56200504  -3.40786419
 C   2.21128693   2.45512681  -4.42030372
 H   2.23479491   3.39356015  -4.98298713
 H   1.49935794   2.60621749  -3.60585139
 C   1.70454290   1.35139046  -5.33471268
 H   2.40673100   1.19603105  -6.15798376
 H   1.62480805   0.40866037  -4.78713642
 C   0.33894334   1.68180895  -5.89515265
 H  -0.36179655   1.79801481  -5.06343406
 H   0.38255888   2.63808316  -6.42104084
 N  -0.16654432   0.63166277  -6.81442754
 H  -1.10743863   0.83227749  -7.15465274
 H   0.44008462   0.53439409  -7.62825177
 H  -0.19352619  -0.27389977  -6.34763645
 O   5.40244707   0.94709081  -1.28556564
