21
conf-156
 N  -6.10354139   1.80646167   2.38504490
 H  -6.63620115   1.59387452   3.22510663
 H  -6.42006339   2.69585291   2.00139304
 H  -6.27475151   1.09574491   1.66831038
 C  -4.64869119   1.81610970   2.62374006
 H  -4.37617473   1.15450987   3.44824794
 H  -4.29478534   2.81339181   2.87722074
 C  -3.95527134   1.32173651   1.35781705
 O  -4.57538365   0.75455509   0.46652252
 N  -2.62510352   1.52469943   1.30262634
 H  -2.09578929   1.89285950   2.07874265
 C  -1.84459799   1.01342837   0.19842763
 H  -2.24532540   0.03074478  -0.07132620
 C  -0.40997039   0.89010369   0.72284325
 C  -1.96255563   1.92263161  -1.03025146
 H  -3.03025312   2.13135252  -1.14309839
 H  -1.47767919   2.87780063  -0.81143730
 O  -0.03233707   1.51212165   1.70116680
 C  -1.45273322   1.37133453  -2.36595406
 H  -0.35993841   1.30087211  -2.33758324
 C  -2.03661684  -0.00494670  -2.67083948
 H  -3.12511070   0.02380081  -2.54741586
 H  -1.81979208  -0.30501178  -3.69884294
 H  -1.64202410  -0.78576469  -2.01577734
 C  -1.84026979   2.34956835  -3.47295062
 H  -2.92682704   2.44497786  -3.51594680
 H  -1.41849793   3.34153746  -3.29004976
 H  -1.49726315   2.01327936  -4.45201499
 N   0.38154077   0.05146557   0.01736022
 H   0.08417351  -0.31136988  -0.87281118
 C   1.80522665  -0.09314952   0.25828517
 H   2.16808627   0.79291708   0.78649880
 C   2.41042866  -0.18521484  -1.14882877
 C   2.13565738  -1.33576612   1.12173405
 H   1.86858054  -2.21019645   0.52232952
 O   1.74279395  -0.60736414  -2.08363700
 C   3.61627143  -1.41735083   1.49463173
 H   3.87302114  -0.55841775   2.12603374
 H   3.80207080  -2.32334652   2.07707855
 H   4.28464096  -1.42360440   0.63871768
 C   1.30619984  -1.34334750   2.40534416
 H   1.49687428  -0.43364542   2.97697481
 H   1.58269679  -2.20244275   3.01953210
 H   0.23700513  -1.40469010   2.20382940
 N   3.70022591   0.21331648  -1.28232403
 H   4.32066521   0.26826081  -0.48683552
 C   4.45728286  -0.09655596  -2.46650908
 H   4.00132103  -0.94149035  -2.99882979
 C   5.87536691  -0.50503068  -1.96981834
 C   4.60854088   1.07914235  -3.43188592
 H   5.15688527   1.88729498  -2.93431560
 H   5.23117671   0.74098076  -4.26484130
 O   6.66456664  -0.91722547  -2.81862959
 C   3.27897854   1.62930887  -3.93857915
 H   3.47472405   2.55692300  -4.48394213
 H   2.65819426   1.90658960  -3.08220119
 C   2.48407707   0.69554155  -4.83592239
 H   3.05640444   0.44946584  -5.73452750
 H   2.27477628  -0.24301291  -4.32119177
 C   1.16261978   1.33301176  -5.21324763
 H   0.67763825   1.68481633  -4.29253808
 H   1.34459981   2.20536810  -5.84661254
 N   0.22850914   0.39792710  -5.87995199
 H  -0.57922255   0.87952300  -6.27136841
 H   0.68886599  -0.11077197  -6.63755164
 H  -0.12009666  -0.28311882  -5.20457965
 O   6.05007543  -0.36146097  -0.73779865
