21
conf-684
 N  -3.98100379   0.25480474   4.86534954
 H  -4.29556174   0.67374284   5.73887211
 H  -4.64498188  -0.47011455   4.59738059
 H  -3.10314423  -0.23195785   5.03871363
 C  -3.82272870   1.23980801   3.78132360
 H  -3.11034310   2.01471681   4.06325269
 H  -4.77078995   1.72769489   3.55738979
 C  -3.32529402   0.54718729   2.52275892
 O  -3.20396910  -0.66528816   2.45743562
 N  -3.08264179   1.37748257   1.46815967
 H  -2.87902340   2.34324373   1.67683937
 C  -2.40335427   0.86917368   0.28653628
 H  -2.61243056  -0.19819714   0.24058501
 C  -0.90409741   1.11062393   0.42905211
 C  -2.92047664   1.58417175  -0.96351300
 H  -4.00358167   1.45343891  -1.00239890
 H  -2.72830372   2.65188740  -0.82591195
 O  -0.46519620   2.19151932   0.79950075
 C  -2.31729627   1.13755557  -2.29851226
 H  -1.23029251   1.27136191  -2.24687127
 C  -2.61362692  -0.32755832  -2.59820844
 H  -3.69334604  -0.48723186  -2.66710015
 H  -2.16439181  -0.62593762  -3.54911499
 H  -2.21888965  -0.99785071  -1.83069741
 C  -2.85392390   2.03056215  -3.41475585
 H  -3.94051341   1.93916043  -3.48052025
 H  -2.60849124   3.07850001  -3.22997069
 H  -2.43013787   1.75122979  -4.38164656
 N  -0.11159783   0.06467008   0.06961326
 H  -0.52678604  -0.70856333  -0.42289411
 C   1.29769823   0.24682213  -0.20479896
 H   1.47814703   1.32457992  -0.26265209
 C   1.59144373  -0.39415112  -1.56366959
 C   2.19679168  -0.30895086   0.91615853
 H   3.22257640  -0.06913797   0.61660867
 O   0.79670447  -1.12750690  -2.13489047
 C   1.90439553   0.40862999   2.23270008
 H   0.92885258   0.11135197   2.61805458
 H   2.65562738   0.14678625   2.98046232
 H   1.89855005   1.49234144   2.10161714
 C   2.06920385  -1.82093740   1.07405495
 H   1.05308913  -2.07757529   1.38277971
 H   2.75718765  -2.18146724   1.84235984
 H   2.28601512  -2.34583830   0.14019659
 N   2.81615943  -0.12827322  -2.07136328
 H   3.43809594   0.55828737  -1.67550865
 C   3.21289735  -0.64025197  -3.35698920
 H   2.95194433  -1.69894835  -3.41934215
 C   4.75284163  -0.43237278  -3.43765124
 C   2.58205359   0.12012863  -4.52797615
 H   1.55079984  -0.21372078  -4.64900601
 H   2.55419356   1.18394269  -4.27814036
 O   5.41886808  -1.36204779  -3.92549717
 C   3.40020935  -0.05783593  -5.80784916
 H   4.38722133   0.37742945  -5.63897385
 H   2.94138692   0.52427481  -6.61533274
 C   3.51441150  -1.51025994  -6.25532625
 H   3.69825090  -2.16194044  -5.39903277
 H   2.56066269  -1.83323565  -6.68578519
 C   4.61651926  -1.74126869  -7.28084737
 H   4.61758371  -2.79004017  -7.58678410
 H   4.42447954  -1.15378094  -8.18227945
 N   5.95052115  -1.37784967  -6.73568675
 H   6.68492716  -1.99035485  -7.09148615
 H   6.19098693  -0.41675773  -6.97499543
 H   5.93870849  -1.44000467  -5.71241324
 O   5.15993652   0.65864918  -3.01648258
