21
conf-102
 N  -4.61730570   1.89870653   5.13871952
 H  -4.76254333   2.57928777   5.88313933
 H  -5.52737055   1.64614844   4.75707517
 H  -4.24574048   1.04610329   5.55441474
 C  -3.72252950   2.39675112   4.08074878
 H  -2.74937164   2.66073019   4.49678409
 H  -4.13590946   3.28957101   3.61400832
 C  -3.52089259   1.33371546   3.00597169
 O  -4.01301049   0.21382041   3.09588008
 N  -2.78542021   1.74033955   1.94126200
 H  -2.20256785   2.56165778   2.01920287
 C  -2.32857973   0.81044504   0.93208111
 H  -2.49906175  -0.20504758   1.29684007
 C  -0.82503942   1.05953074   0.75061393
 C  -3.05736392   0.98804359  -0.40104794
 H  -2.90022597   2.01270436  -0.74664277
 H  -2.59330202   0.33031369  -1.14092306
 O  -0.30362984   2.11184175   1.08341289
 C  -4.56080045   0.69916826  -0.37299105
 H  -5.01436893   1.31395059   0.40467122
 C  -5.17963593   1.09848582  -1.70980262
 H  -4.74081769   0.51399074  -2.52272552
 H  -6.25830832   0.92547658  -1.71041396
 H  -5.00829609   2.15678812  -1.91822719
 C  -4.85323711  -0.76693967  -0.06458124
 H  -4.41060963  -1.40863909  -0.83235784
 H  -4.45753653  -1.06579153   0.90647110
 H  -5.93152632  -0.94545268  -0.05737095
 N  -0.13951982   0.03880271   0.17817487
 H  -0.63293657  -0.76113454  -0.18653852
 C   1.23894046   0.17634227  -0.26484217
 H   1.47846786   1.24299507  -0.31167400
 C   1.31605474  -0.44693974  -1.65870632
 C   2.23340700  -0.49114817   0.71382836
 H   1.87526513  -1.51140065   0.87128081
 O   0.69234209  -1.45893312  -1.93854575
 C   3.66021736  -0.55985557   0.16884668
 H   4.02378942   0.44200224  -0.08096349
 H   4.32429146  -0.97745563   0.92873720
 H   3.73833799  -1.18720235  -0.72258956
 C   2.23023060   0.25847870   2.04400070
 H   2.64532911   1.26023397   1.89721836
 H   2.84474293  -0.26435587   2.77868611
 H   1.22515031   0.37007668   2.44970403
 N   2.15009493   0.18166568  -2.53472051
 H   2.86582269   0.81021024  -2.19347222
 C   2.62428020  -0.48261584  -3.71719521
 H   2.51068820  -1.57249375  -3.61738737
 C   4.13841645  -0.12027913  -3.82780349
 C   1.94332938  -0.04118991  -5.01217559
 H   2.02483311   1.04347493  -5.12835171
 H   2.51182192  -0.49888860  -5.82638977
 O   4.77238107  -0.67135256  -4.72980686
 C   0.48245061  -0.45976405  -5.07293123
 H  -0.05942323   0.00379321  -4.24832369
 H   0.41591984  -1.54219666  -4.91369041
 C  -0.19476420  -0.10200267  -6.38774675
 H  -1.26399242  -0.31924273  -6.31083995
 H  -0.10264740   0.97489266  -6.56903467
 C   0.36138641  -0.84777235  -7.58280471
 H   1.41276575  -0.58771978  -7.72135871
 H   0.31642444  -1.92300387  -7.39195673
 N  -0.37491981  -0.52831419  -8.83177374
 H  -0.00088514  -1.02577303  -9.64001214
 H  -1.35972792  -0.77501169  -8.74660308
 H  -0.32678239   0.46886106  -9.03562724
 O   4.54845919   0.69948233  -2.97438384
