21
conf-472
 N  -2.92765999  -1.37031286   4.60787841
 H  -3.61981272  -1.76004771   5.24266372
 H  -2.55333492  -2.10586509   4.00259867
 H  -2.14616425  -1.00023834   5.14739246
 C  -3.49298753  -0.33902100   3.72044041
 H  -3.40397086   0.65397857   4.15260701
 H  -4.55069437  -0.51642970   3.52570965
 C  -2.75496579  -0.38969249   2.39129786
 O  -2.10951037  -1.37531979   2.04823472
 N  -2.93332386   0.69365357   1.59048538
 H  -3.11203504   1.57209720   2.04655368
 C  -2.21873086   0.79510411   0.32339413
 H  -2.35799677  -0.16045592  -0.18748215
 C  -0.73302368   0.99538562   0.60263408
 C  -2.76161708   1.95290700  -0.49931793
 H  -2.63029560   2.86266366   0.08718174
 H  -2.15851190   2.07007035  -1.40486352
 O  -0.33476434   1.90776848   1.32032216
 C  -4.22662850   1.80712607  -0.91435985
 H  -4.82415420   1.64339573  -0.01446106
 C  -4.70251561   3.09751332  -1.57628280
 H  -4.12391726   3.29519573  -2.48281539
 H  -5.75642232   3.03202942  -1.85823471
 H  -4.58655853   3.95405433  -0.90817421
 C  -4.42810772   0.62258120  -1.85319102
 H  -3.85836759   0.77207377  -2.77538066
 H  -4.10366633  -0.31944961  -1.40634748
 H  -5.48191176   0.51811646  -2.12406744
 N   0.08582026   0.09066735   0.02463671
 H  -0.26885880  -0.58972694  -0.62585963
 C   1.50592754   0.05716365   0.26313598
 H   1.81416229   1.06836827   0.54547946
 C   2.19473672  -0.36427018  -1.03640740
 C   1.91573653  -0.89567772   1.41380779
 H   3.01095201  -0.81407681   1.47555954
 O   1.60660520  -0.89338457  -1.96172424
 C   1.31977739  -0.44627054   2.74512271
 H   0.26200101  -0.70162157   2.78282393
 H   1.81586856  -0.96183235   3.56916014
 H   1.41736582   0.63020208   2.88862501
 C   1.53535362  -2.34504335   1.11528922
 H   0.44724854  -2.44366183   1.09120291
 H   1.91815050  -3.00923609   1.89338881
 H   1.92765636  -2.66856538   0.14681063
 N   3.53255504  -0.14524417  -1.04599505
 H   4.06732957  -0.00222370  -0.19900038
 C   4.36889916  -0.69849573  -2.07342399
 H   4.06725737  -1.73169998  -2.29290028
 C   5.79988099  -0.71674328  -1.46148079
 C   4.35871795   0.08632561  -3.38016616
 H   4.95530718  -0.47255173  -4.10609295
 H   3.32835269   0.09940911  -3.73688082
 O   6.72620880  -1.05294028  -2.20041665
 C   4.89415398   1.50770350  -3.24709369
 H   5.93929935   1.46642260  -2.93081350
 H   4.34719041   2.03327342  -2.46135337
 C   4.76034904   2.27108509  -4.55364807
 H   5.35286768   1.77850369  -5.33051853
 H   3.71585003   2.23353830  -4.87921061
 C   5.17149651   3.72757942  -4.45623121
 H   4.90836919   4.25500900  -5.37472577
 H   4.61070641   4.19909030  -3.64447676
 N   6.62444808   3.89469993  -4.19465066
 H   6.89115336   4.87660721  -4.11922186
 H   6.89261486   3.44081967  -3.32238866
 H   7.18358514   3.47454351  -4.93681093
 O   5.84435774  -0.40905440  -0.24777246
