21
conf-797
 N  -1.97732169  -2.71852087   3.12905378
 H  -2.51004247  -3.39492341   3.67018028
 H  -1.79490724  -3.08883815   2.19307475
 H  -1.07451266  -2.57056007   3.57610458
 C  -2.69791186  -1.44391953   2.95703474
 H  -2.43592335  -0.73095983   3.73472037
 H  -3.77796866  -1.58896795   3.00162028
 C  -2.35558732  -0.86489421   1.59207914
 O  -1.83494936  -1.55148910   0.71603775
 N  -2.73474968   0.41449851   1.39247611
 H  -2.95629139   0.98909667   2.18787124
 C  -2.51933613   1.09053918   0.11669826
 H  -2.73257763   0.34637111  -0.65152441
 C  -1.05464241   1.51733366   0.01746370
 C  -3.47281940   2.26706664  -0.00659567
 H  -4.48445098   1.87713917   0.12950657
 H  -3.27240453   2.95911535   0.81438254
 O  -0.65747458   2.62500384   0.36719069
 C  -3.42079873   3.03142246  -1.33338055
 H  -2.41963752   3.46248229  -1.42714977
 C  -3.67519127   2.12382173  -2.53077301
 H  -4.66941889   1.67074715  -2.46085142
 H  -3.63708870   2.69994548  -3.45875277
 H  -2.93657333   1.32253308  -2.60733222
 C  -4.43240577   4.17442845  -1.29864610
 H  -5.44620755   3.78005965  -1.19815902
 H  -4.24086490   4.84474822  -0.45824660
 H  -4.38806778   4.76460896  -2.21677103
 N  -0.21875655   0.56871870  -0.46336244
 H  -0.53400449  -0.38877169  -0.57062568
 C   1.20721766   0.81034761  -0.55359610
 H   1.33471167   1.87255793  -0.77594618
 C   1.75178777  -0.03957683  -1.70027358
 C   1.93670192   0.53310602   0.78734418
 H   1.41843976   1.16731764   1.50963224
 O   1.33402152  -1.15894001  -1.93210517
 C   1.81786014  -0.92661710   1.22606174
 H   2.37108482  -1.56915925   0.53996280
 H   2.23049789  -1.04985943   2.22884547
 H   0.77688429  -1.25478507   1.23172683
 C   3.40082634   0.96857312   0.74334604
 H   3.97042134   0.38917168   0.01209306
 H   3.85809158   0.82748081   1.72541969
 H   3.48716114   2.02946360   0.48863107
 N   2.73732882   0.54499292  -2.44397305
 H   3.21906965   1.33772080  -2.04454533
 C   3.56591406  -0.26169292  -3.30592859
 H   3.01240014  -1.16235873  -3.55610500
 C   4.88973826  -0.65425797  -2.56033950
 C   3.98360089   0.50779119  -4.55067603
 H   3.08563433   0.85671278  -5.06758961
 H   4.53770931   1.39756420  -4.23091422
 O   5.29045420  -1.81551989  -2.73767485
 C   4.83893522  -0.33739113  -5.49350257
 H   5.65617404  -0.78740988  -4.92470687
 H   5.30837734   0.31645633  -6.23638257
 C   4.04114258  -1.40854008  -6.22501006
 H   3.52146138  -2.04730045  -5.50281003
 H   3.26489228  -0.92992989  -6.83187574
 C   4.89513804  -2.27546579  -7.13051630
 H   4.26255832  -2.86230079  -7.79865536
 H   5.51428322  -1.63244548  -7.76164108
 N   5.77926648  -3.19195350  -6.36491621
 H   6.41780534  -3.70617606  -6.97246128
 H   6.34471238  -2.67588390  -5.68833284
 H   5.23344110  -3.87208441  -5.83420982
 O   5.41764593   0.26739218  -1.89745387
