21
conf-150
 N  -5.70956562   1.71311729   4.22961448
 H  -6.00694571   2.34981516   4.96757067
 H  -6.52959236   1.45439693   3.68349724
 H  -5.38376841   0.85126656   4.66413137
 C  -4.66455642   2.29082610   3.36826525
 H  -3.78824622   2.56021072   3.95935071
 H  -5.02406982   3.19451845   2.87845991
 C  -4.24119343   1.29089981   2.29722342
 O  -4.69775116   0.15344191   2.25002638
 N  -3.35048184   1.77297810   1.39538835
 H  -2.82163792   2.60704923   1.60747153
 C  -2.69494005   0.91067486   0.43715634
 H  -2.88496886  -0.12704873   0.72160341
 C  -1.19558745   1.21884433   0.52141657
 C  -3.19757581   1.13469952  -0.99140741
 H  -3.03822778   2.18394041  -1.25147655
 H  -2.58113376   0.54302418  -1.67487566
 O  -0.78357364   2.27558525   0.97237192
 C  -4.66799383   0.78465345  -1.23555340
 H  -5.27561290   1.34057885  -0.52121417
 C  -5.06749218   1.22860428  -2.64008047
 H  -4.46872240   0.70452319  -3.38962817
 H  -6.12076254   1.01439099  -2.83525494
 H  -4.91281722   2.30211072  -2.76816150
 C  -4.94192013  -0.70514485  -1.04698592
 H  -4.35041033  -1.29066695  -1.75716943
 H  -4.70079933  -1.03904009  -0.03740581
 H  -5.99752594  -0.92201453  -1.22945819
 N  -0.37832125   0.24552211   0.03848402
 H  -0.76127017  -0.50317066  -0.51779935
 C   1.02542930   0.49168235  -0.20984737
 H   1.18245398   1.57434053  -0.26939138
 C   1.36647147  -0.15635400  -1.55330422
 C   1.95988682  -0.03629996   0.90379169
 H   2.96967251   0.26118579   0.59122593
 O   0.61711715  -0.93814567  -2.11139130
 C   1.65362840   0.63745101   2.23709231
 H   0.69305725   0.29497030   2.62182860
 H   2.41931076   0.38281129   2.97232050
 H   1.60934029   1.72291140   2.13476385
 C   1.91445031  -1.55713098   1.03021743
 H   0.92018019  -1.87200673   1.35486522
 H   2.63960325  -1.90064372   1.77065471
 H   2.13219467  -2.04167293   0.07348536
 N   2.58164606   0.20455565  -2.04243591
 H   3.29310021   0.54987332  -1.40883662
 C   3.22381599  -0.53675882  -3.09009549
 H   2.80677787  -1.55403923  -3.15659725
 C   4.72746207  -0.61942507  -2.66368316
 C   3.14747209   0.12197617  -4.46612671
 H   3.51361983   1.15113105  -4.40200502
 H   3.82978258  -0.42678772  -5.12177561
 O   5.48226347  -1.27207983  -3.38342038
 C   1.74284882   0.11070823  -5.04958369
 H   1.06533748   0.66402662  -4.40406206
 H   1.37419942  -0.92110483  -5.07110152
 C   1.70010325   0.68926498  -6.45240708
 H   2.05324058   1.72374282  -6.43017027
 H   2.37964002   0.13191019  -7.10304083
 C   0.31120046   0.65935130  -7.05015395
 H  -0.04255182  -0.37384249  -7.08313357
 H  -0.36936282   1.21212647  -6.39845511
 N   0.26982995   1.24018858  -8.41547379
 H  -0.66812664   1.22174605  -8.81711205
 H   0.58159946   2.21072122  -8.40762579
 H   0.88481396   0.72916380  -9.04787460
 O   4.99276983  -0.00435295  -1.60318342
