21
conf-34
 N  -4.73998766   2.34614931   3.78096237
 H  -4.91796372   3.03715974   4.50844700
 H  -5.56060615   2.29958086   3.17927187
 H  -4.66819161   1.43048166   4.22156268
 C  -3.52961641   2.64469308   2.99768315
 H  -2.65527001   2.68955181   3.64830792
 H  -3.62080769   3.60807856   2.49838157
 C  -3.29714957   1.56855095   1.94211926
 O  -4.01762346   0.58026141   1.84804930
 N  -2.25552533   1.81109239   1.10897959
 H  -1.55203970   2.48928250   1.36667342
 C  -1.77797881   0.81106161   0.18039986
 H  -2.23197281  -0.14797653   0.43810491
 C  -0.26581488   0.73657918   0.36493332
 C  -2.11614407   1.14310350  -1.27377397
 H  -1.70164116   2.12881583  -1.50884424
 H  -1.60598486   0.42606711  -1.92318343
 O   0.36284033   1.67250362   0.84726313
 C  -3.60696591   1.13893505  -1.62190004
 H  -4.12097564   1.82297059  -0.94634236
 C  -3.79475354   1.65180081  -3.04641434
 H  -3.27803246   1.00032969  -3.75582757
 H  -4.85263052   1.68073675  -3.31719260
 H  -3.39226828   2.66100012  -3.15490144
 C  -4.22342823  -0.24923881  -1.46624099
 H  -3.71699296  -0.96260045  -2.12352263
 H  -4.15368111  -0.61244300  -0.44054292
 H  -5.28041925  -0.22833269  -1.74412308
 N   0.32767500  -0.40564204  -0.05450196
 H  -0.20289398  -1.04805573  -0.61610324
 C   1.78341330  -0.55855798  -0.06541671
 H   2.14560412  -0.11411838   0.86271356
 C   2.32761958   0.24093338  -1.25597533
 C   2.19559739  -2.03345362  -0.12248830
 H   1.84487135  -2.42343718  -1.08052439
 O   2.51091969  -0.24761125  -2.36244628
 C   3.71950088  -2.17030521  -0.05498404
 H   4.08484982  -1.76076720   0.89024869
 H   4.00811429  -3.22261176  -0.10567294
 H   4.20656276  -1.63964930  -0.87391423
 C   1.56410105  -2.83402680   1.01293885
 H   1.90633091  -2.45049068   1.97803937
 H   1.86193058  -3.88284294   0.94206794
 H   0.47583442  -2.78909442   0.99086817
 N   2.56280049   1.55206458  -1.00153194
 H   2.18023661   1.97281224  -0.16155031
 C   2.80244416   2.46252112  -2.08427133
 H   3.50663307   2.01553055  -2.78650733
 C   3.38543487   3.76789556  -1.45709064
 C   1.52532230   2.88799686  -2.79543234
 H   1.06129783   2.01702551  -3.26047911
 H   0.83235816   3.27816175  -2.03770409
 O   4.48894221   4.14476195  -1.87527546
 C   1.83020214   3.96818215  -3.82553182
 H   2.47774551   3.54729914  -4.60297737
 H   2.39630130   4.77097092  -3.34297397
 C   0.58033129   4.53476631  -4.47141920
 H   0.01265164   3.73137183  -4.94586991
 H  -0.06114760   4.97343377  -3.70272646
 C   0.90585704   5.59434504  -5.49959448
 H   1.49498070   6.37937080  -5.01901416
 H   1.53153508   5.15566373  -6.28051499
 N  -0.30891291   6.18877020  -6.11030902
 H  -0.08432796   6.90495446  -6.80171441
 H  -0.86881853   5.47604758  -6.57724651
 H  -0.89890667   6.62188758  -5.40064823
 O   2.65392711   4.29661478  -0.59798095
