116
118
N          0.70869       -4.43459       -3.13746
H          1.50174       -4.32403       -2.37195
H         -0.04946       -5.07768       -2.82551
H          1.11580       -4.68554       -4.06080
C          0.04737       -3.08912       -3.35467
H          0.74202       -2.33798       -2.97146
C         -1.25840       -3.12681       -2.55179
C         -0.25611       -2.92243       -4.85691
H         -1.14186       -3.52181       -5.11370
O         -1.80630       -4.20968       -2.27211
C         -0.46190       -1.44901       -5.22350
H         -1.31707       -1.02024       -4.69070
H         -0.64675       -1.34573       -6.29806
H          0.44244       -0.88784       -4.96727
O          0.94582       -3.48293       -5.49612
H          0.82164       -3.48929       -6.48064
N         -1.70013       -1.89828       -2.22583
H         -1.22305       -1.06585       -2.56509
C         -2.86339       -1.59354       -1.40281
H         -3.62877       -2.36347       -1.52438
C         -3.30176       -0.17686       -1.84945
C         -2.42398       -1.46336        0.09920
H         -1.69189       -0.65127        0.12820
H         -3.27621       -1.15293        0.71123
O         -2.65442        0.44670       -2.71933
C         -1.81715       -2.73452        0.64520
C         -2.58412       -3.62845        1.40096
H         -3.61292       -3.38198        1.64273
C         -0.48882       -3.06297        0.34493
H          0.10042       -2.39239       -0.26743
C         -2.03722       -4.83741        1.83720
H         -2.64104       -5.52189        2.42151
C          0.05000       -4.28630        0.74938
H          1.04953       -4.55145        0.43054
C         -0.72306       -5.17328        1.50284
H         -0.30933       -6.12473        1.81642
N         -4.29958        0.38638       -1.11885
H         -4.77684       -0.15368       -0.39908
C         -4.28998        1.84916       -0.83435
H         -3.64114        2.30963       -1.57884
C         -3.71400        1.90440        0.59925
C         -5.71457        2.40778       -0.84652
H         -5.70381        3.48811       -0.67012
H         -6.28285        1.92970       -0.04249
H         -6.19008        2.20249       -1.80854
O         -4.30741        1.28625        1.51319
N         -2.52906        2.53382        0.77143
H         -2.01441        2.98181        0.01257
C         -1.81426        2.51232        2.05764
H         -2.42456        2.95422        2.84880
C         -0.51280        3.29477        1.84260
C         -1.46952        1.02629        2.41770
H         -0.83999        0.63243        1.61501
H         -2.42470        0.49996        2.40340
O         -0.07721        3.52702        0.68535
C         -0.75886        0.74428        3.77339
H         -0.81598       -0.32852        3.96428
H          0.29120        1.04530        3.73541
C         -1.43126        1.47189        4.90447
O         -1.36444        2.69747        5.10298
O         -2.17206        0.65425        5.69808
N          0.15471        3.58522        2.97943
H         -0.30868        3.40339        3.88713
C          1.61139        3.87748        2.96817
H          1.82159        4.66338        2.24000
C          2.21797        2.52307        2.53489
C          2.05439        4.25026        4.38073
H          3.11489        4.51897        4.38946
H          1.90353        3.38582        5.03406
H          1.47159        5.09714        4.75156
O          2.38137        1.57919        3.35223
N          2.37746        2.37656        1.20121
H          2.04740        3.14438        0.61721
C          2.28791        1.06511        0.54984
H          1.28540        0.65901        0.72306
C          3.30416        0.01194        0.95895
C          2.51587        1.22759       -0.98098
H          3.46136        1.76519       -1.11378
H          2.60892        0.21773       -1.39097
O          4.53881        0.22957        1.12043
C          1.35359        1.91277       -1.73718
H          1.20956        2.94340       -1.39247
C          1.69965        1.91721       -3.24321
H          1.77712        0.88336       -3.60461
H          2.65312        2.42326       -3.43302
H          0.91500        2.42550       -3.81364
C          0.04670        1.13406       -1.50264
H          0.24852        0.05930       -1.58218
H         -0.71952        1.40275       -2.23174
H         -0.35885        1.35402       -0.51196
N          2.78804       -1.24259        0.91548
H          1.78013       -1.30503        0.79125
C          3.50156       -2.38434        0.28153
H          4.44667       -1.98606       -0.10810
C          2.59443       -2.76870       -0.95534
C          3.76042       -3.61128        1.17478
H          3.72765       -4.46130        0.48718
H          2.92124       -3.72589        1.87087
O          1.91913       -1.82001       -1.48181
C          5.11004       -3.65820        1.93399
H          5.91655       -3.26456        1.30189
H          5.35082       -4.70898        2.13361
C          5.13417       -2.93914        3.29516
H          6.04061       -3.21708        3.84764
H          4.25643       -3.26706        3.87045
N          5.09389       -1.47667        3.11674
H          5.09547       -1.06518        2.16407
N          4.64165       -1.01139        5.36348
H          4.60306       -0.33484        6.11576
H          4.57209       -1.99138        5.60219
N          4.88333        0.71937        3.82375
H          4.96992        0.94839        2.82584
H          4.19344        1.30420        4.29669
C          4.87006       -0.60308        4.09824
O          2.56440       -4.00422       -1.30158
H         -2.62689        1.19068        6.40804
